* NGSPICE file created from BR128_flat.ext - technology: sky130A

.subckt BR128_flat OUT C[127] C[126] C[125] C[124] C[123] C[122] C[121] C[120] C[119]
+ C[118] C[117] C[116] C[115] C[114] C[113] C[112] C[63] C[62] C[61] C[60] C[59] C[58]
+ C[57] C[56] C[55] C[54] C[53] C[52] C[51] C[50] C[49] C[48] RESET C[111] C[110]
+ C[109] C[108] C[107] C[106] C[105] C[104] C[103] C[102] C[101] C[100] C[99] C[98]
+ C[97] C[96] C[32] C[33] C[34] C[35] C[36] C[37] C[38] C[39] C[40] C[41] C[42] C[43]
+ C[44] C[45] C[46] C[47] C[0] C[1] C[2] C[3] C[4] C[5] C[7] C[8] C[9] C[10] C[11]
+ C[12] C[13] C[14] C[15] C[16] C[17] C[18] C[19] C[20] C[21] C[22] C[23] C[24] C[25]
+ C[26] C[27] C[28] C[29] C[30] C[6] C[31] C[95] C[94] C[93] C[92] C[91] C[90] C[89]
+ C[88] C[87] C[86] C[85] C[84] C[83] C[82] C[81] C[80] C[79] C[78] C[77] C[76] C[75]
+ C[74] C[73] C[72] C[71] C[70] C[69] C[68] C[67] C[66] C[65] C[64] VSS VDD
X0 BR128half_1/brbufhalf_1/sky130_fd_sc_hd__inv_16_3/A BR128half_0/sky130_fd_sc_hd__inv_16_0/A VDD VDD sky130_fd_pr__pfet_01v8_hvt ad=0p pd=0u as=0p ps=0u w=1e+06u l=150000u
X1 BR128half_1/brbufhalf_1/sky130_fd_sc_hd__inv_16_3/Y BR128half_1/brbufhalf_1/sky130_fd_sc_hd__inv_16_3/A VSS VSS sky130_fd_pr__nfet_01v8 ad=0p pd=0u as=0p ps=0u w=650000u l=150000u
X2 VDD a_18085_739# a_18033_765# VDD sky130_fd_pr__pfet_01v8_hvt ad=0p pd=0u as=0p ps=0u w=1e+06u l=150000u
X3 a_4480_928# a_3605_1566# VSS VSS sky130_fd_pr__nfet_01v8 ad=0p pd=0u as=0p ps=0u w=520000u l=150000u
X4 a_13143_510# a_13141_1566# a_13454_2061# VDD sky130_fd_pr__pfet_01v8_hvt ad=0p pd=0u as=0p ps=0u w=1e+06u l=150000u
X5 a_3701_1566# a_2987_739# a_3605_1566# VDD sky130_fd_pr__pfet_01v8_hvt ad=0p pd=0u as=0p ps=0u w=1e+06u l=150000u
X6 BR128half_1/brbufhalf_3/sky130_fd_sc_hd__inv_16_1/Y BR128half_1/brbufhalf_0/sky130_fd_sc_hd__inv_16_3/A VDD VDD sky130_fd_pr__pfet_01v8_hvt ad=0p pd=0u as=0p ps=0u w=1e+06u l=150000u
X7 VSS a_31072_18706# a_31020_18732# VSS sky130_fd_pr__nfet_01v8 ad=0p pd=0u as=0p ps=0u w=650000u l=150000u
X8 VSS a_32960_18706# a_32908_18732# VSS sky130_fd_pr__nfet_01v8 ad=0p pd=0u as=0p ps=0u w=650000u l=150000u
X9 VSS BR128half_0/brbufhalf_1/sky130_fd_sc_hd__inv_16_3/A BR128half_0/brbufhalf_1/sky130_fd_sc_hd__inv_16_1/Y VSS sky130_fd_pr__nfet_01v8 ad=0p pd=0u as=0p ps=0u w=650000u l=150000u
X10 a_56214_13071# a_57608_12988# a_57648_14194# VDD sky130_fd_pr__pfet_01v8_hvt ad=0p pd=0u as=0p ps=0u w=1e+06u l=150000u
X11 a_22197_6419# a_21971_6509# VSS VSS sky130_fd_pr__nfet_01v8 ad=0p pd=0u as=0p ps=0u w=650000u l=150000u
X12 a_48989_5620# a_48397_6509# a_47003_6676# VSS sky130_fd_pr__nfet_01v8 ad=0p pd=0u as=0p ps=0u w=650000u l=150000u
X13 BR128half_1/brbufhalf_0/sky130_fd_sc_hd__inv_16_1/Y BR128half_1/brbufhalf_0/sky130_fd_sc_hd__inv_16_3/A VSS VSS sky130_fd_pr__nfet_01v8 ad=0p pd=0u as=0p ps=0u w=650000u l=150000u
X14 a_22250_18251# a_23520_18706# a_23711_18006# VSS sky130_fd_pr__nfet_01v8 ad=0p pd=0u as=0p ps=0u w=650000u l=150000u
X15 a_58102_13071# a_59496_12988# a_59536_14194# VDD sky130_fd_pr__pfet_01v8_hvt ad=0p pd=0u as=0p ps=0u w=1e+06u l=150000u
X16 BR128half_1/brbufhalf_1/sky130_fd_sc_hd__inv_16_1/Y BR128half_1/brbufhalf_1/sky130_fd_sc_hd__inv_16_3/A VSS VSS sky130_fd_pr__nfet_01v8 ad=0p pd=0u as=0p ps=0u w=650000u l=150000u
X17 VDD BR128half_1/brbufhalf_1/sky130_fd_sc_hd__inv_16_3/A BR128half_1/brbufhalf_2/sky130_fd_sc_hd__inv_16_3/Y VDD sky130_fd_pr__pfet_01v8_hvt ad=0p pd=0u as=0p ps=0u w=1e+06u l=150000u
X18 a_26124_19307# a_25408_18706# a_24138_18251# VDD sky130_fd_pr__pfet_01v8_hvt ad=0p pd=0u as=0p ps=0u w=1e+06u l=150000u
X19 VDD a_46170_18706# a_46388_18747# VDD sky130_fd_pr__pfet_01v8_hvt ad=0p pd=0u as=0p ps=0u w=1e+06u l=150000u
X20 a_56228_18251# a_55610_18706# a_55828_18747# VSS sky130_fd_pr__nfet_01v8 ad=0p pd=0u as=0p ps=0u w=650000u l=150000u
X21 VDD a_19973_739# a_20191_1000# VDD sky130_fd_pr__pfet_01v8_hvt ad=0p pd=0u as=0p ps=0u w=1e+06u l=150000u
X22 VDD a_38853_739# a_39071_1000# VDD sky130_fd_pr__pfet_01v8_hvt ad=0p pd=0u as=0p ps=0u w=1e+06u l=150000u
X23 VDD BR128half_1/brbufhalf_0/sky130_fd_sc_hd__inv_16_3/A BR128half_1/brbufhalf_3/sky130_fd_sc_hd__inv_16_3/Y VDD sky130_fd_pr__pfet_01v8_hvt ad=0p pd=0u as=0p ps=0u w=1e+06u l=150000u
X24 a_49757_12994# a_49587_12994# VDD VDD sky130_fd_pr__pfet_01v8_hvt ad=0p pd=0u as=0p ps=0u w=790000u l=150000u
X25 a_58212_18251# a_57498_18706# a_58116_18251# VDD sky130_fd_pr__pfet_01v8_hvt ad=0p pd=0u as=0p ps=0u w=1e+06u l=150000u
X26 VSS BR128half_0/brbufhalf_0/sky130_fd_sc_hd__inv_16_3/A BR128half_0/brbufhalf_0/sky130_fd_sc_hd__inv_16_3/Y VSS sky130_fd_pr__nfet_01v8 ad=0p pd=0u as=0p ps=0u w=650000u l=150000u
X27 a_10350_6503# a_10180_6503# VSS VSS sky130_fd_pr__nfet_01v8 ad=0p pd=0u as=0p ps=0u w=520000u l=150000u
X28 BR128half_1/brbufhalf_1/sky130_fd_sc_hd__inv_16_3/Y BR128half_1/brbufhalf_1/sky130_fd_sc_hd__inv_16_3/A VSS VSS sky130_fd_pr__nfet_01v8 ad=0p pd=0u as=0p ps=0u w=650000u l=150000u
X29 VDD BR128half_1/brbufhalf_1/sky130_fd_sc_hd__inv_16_3/A BR128half_1/brbufhalf_2/sky130_fd_sc_hd__inv_16_3/Y VDD sky130_fd_pr__pfet_01v8_hvt ad=0p pd=0u as=0p ps=0u w=1e+06u l=150000u
X30 a_29802_18251# a_31072_18706# a_31263_18006# VSS sky130_fd_pr__nfet_01v8 ad=0p pd=0u as=0p ps=0u w=650000u l=150000u
X31 a_16078_12988# C[104] VSS VSS sky130_fd_pr__nfet_01v8 ad=0p pd=0u as=0p ps=0u w=650000u l=150000u
X32 VSS BR128half_1/brbufhalf_3/sky130_fd_sc_hd__inv_16_3/Y a_50330_5455# VSS sky130_fd_pr__nfet_01v8 ad=0p pd=0u as=0p ps=0u w=650000u l=150000u
X33 VDD a_2758_18706# a_2706_18732# VDD sky130_fd_pr__pfet_01v8_hvt ad=0p pd=0u as=0p ps=0u w=1e+06u l=150000u
X34 VDD a_53722_18706# a_53940_18747# VDD sky130_fd_pr__pfet_01v8_hvt ad=0p pd=0u as=0p ps=0u w=1e+06u l=150000u
X35 a_17966_12988# C[105] VSS VSS sky130_fd_pr__nfet_01v8 ad=0p pd=0u as=0p ps=0u w=650000u l=150000u
X36 VSS C[81] a_27525_739# VSS sky130_fd_pr__nfet_01v8 ad=0p pd=0u as=0p ps=0u w=650000u l=150000u
X37 a_33676_19307# a_32960_18706# a_31690_18251# VDD sky130_fd_pr__pfet_01v8_hvt ad=0p pd=0u as=0p ps=0u w=1e+06u l=150000u
X38 BR128half_0/brbufhalf_2/sky130_fd_sc_hd__inv_16_3/Y BR128half_0/brbufhalf_1/sky130_fd_sc_hd__inv_16_3/A VDD VDD sky130_fd_pr__pfet_01v8_hvt ad=0p pd=0u as=0p ps=0u w=1e+06u l=150000u
X39 BR128half_0/brbufhalf_1/sky130_fd_sc_hd__inv_16_1/Y BR128half_0/brbufhalf_1/sky130_fd_sc_hd__inv_16_3/A VSS VSS sky130_fd_pr__nfet_01v8 ad=0p pd=0u as=0p ps=0u w=650000u l=150000u
X40 VDD BR128half_0/brbufhalf_0/sky130_fd_sc_hd__inv_16_3/A BR128half_0/brbufhalf_0/sky130_fd_sc_hd__inv_16_3/Y VDD sky130_fd_pr__pfet_01v8_hvt ad=0p pd=0u as=0p ps=0u w=1e+06u l=150000u
X41 VDD a_42234_928# a_42184_763# VDD sky130_fd_pr__pfet_01v8_hvt ad=0p pd=0u as=0p ps=0u w=790000u l=150000u
X42 a_37156_1811# a_37183_1000# a_37168_2061# VDD sky130_fd_pr__pfet_01v8_hvt ad=0p pd=0u as=0p ps=0u w=1e+06u l=150000u
X43 BR128half_1/brbufhalf_1/sky130_fd_sc_hd__inv_16_1/Y BR128half_1/brbufhalf_1/sky130_fd_sc_hd__inv_16_3/A VDD VDD sky130_fd_pr__pfet_01v8_hvt ad=0p pd=0u as=0p ps=0u w=1e+06u l=150000u
X44 a_24236_19307# BR128half_0/brbufhalf_3/sky130_fd_sc_hd__inv_16_1/Y VSS VSS sky130_fd_pr__nfet_01v8 ad=0p pd=0u as=0p ps=0u w=650000u l=150000u
X45 a_59725_6509# C[63] VDD VDD sky130_fd_pr__pfet_01v8_hvt ad=0p pd=0u as=0p ps=0u w=1e+06u l=150000u
X46 VSS BR128half_1/brbufhalf_3/sky130_fd_sc_hd__inv_16_1/Y a_45217_6676# VSS sky130_fd_pr__nfet_01v8 ad=0p pd=0u as=0p ps=0u w=650000u l=150000u
X47 VDD a_37301_6419# a_37115_5687# VDD sky130_fd_pr__pfet_01v8_hvt ad=0p pd=0u as=0p ps=0u w=1e+06u l=150000u
X48 VDD BR128half_1/brbufhalf_0/sky130_fd_sc_hd__inv_16_3/A BR128half_1/brbufhalf_0/sky130_fd_sc_hd__inv_16_3/Y VDD sky130_fd_pr__pfet_01v8_hvt ad=0p pd=0u as=0p ps=0u w=1e+06u l=150000u
X49 VDD BR128half_1/brbufhalf_1/sky130_fd_sc_hd__inv_16_3/A BR128half_1/brbufhalf_1/sky130_fd_sc_hd__inv_16_3/Y VDD sky130_fd_pr__pfet_01v8_hvt ad=0p pd=0u as=0p ps=0u w=1e+06u l=150000u
X50 VDD C[26] a_10310_18706# VDD sky130_fd_pr__pfet_01v8_hvt ad=0p pd=0u as=0p ps=0u w=1e+06u l=150000u
X51 a_60100_18251# a_59334_18732# VDD VDD sky130_fd_pr__pfet_01v8_hvt ad=0p pd=0u as=0p ps=0u w=1e+06u l=150000u
X52 BR128half_0/brbufhalf_3/sky130_fd_sc_hd__inv_16_1/Y BR128half_0/brbufhalf_0/sky130_fd_sc_hd__inv_16_3/A VDD VDD sky130_fd_pr__pfet_01v8_hvt ad=0p pd=0u as=0p ps=0u w=1e+06u l=150000u
X53 a_29900_19307# BR128half_0/brbufhalf_3/sky130_fd_sc_hd__inv_16_1/Y VSS VSS sky130_fd_pr__nfet_01v8 ad=0p pd=0u as=0p ps=0u w=650000u l=150000u
X54 VSS a_3591_6676# a_4516_6503# VSS sky130_fd_pr__nfet_01v8 ad=0p pd=0u as=0p ps=0u w=520000u l=150000u
X55 BR128half_1/brbufhalf_3/sky130_fd_sc_hd__inv_16_3/Y BR128half_1/brbufhalf_0/sky130_fd_sc_hd__inv_16_3/A VSS VSS sky130_fd_pr__nfet_01v8 ad=0p pd=0u as=0p ps=0u w=650000u l=150000u
X56 a_22250_18251# a_23468_18732# a_23711_18006# VDD sky130_fd_pr__pfet_01v8_hvt ad=0p pd=0u as=0p ps=0u w=1e+06u l=150000u
X57 a_13488_5455# a_13129_5620# a_13127_6676# VDD sky130_fd_pr__pfet_01v8_hvt ad=0p pd=0u as=0p ps=0u w=1e+06u l=150000u
X58 a_39340_19307# a_39338_18251# a_39651_17686# VDD sky130_fd_pr__pfet_01v8_hvt ad=0p pd=0u as=0p ps=0u w=1e+06u l=150000u
X59 BR128half_1/brbufhalf_3/sky130_fd_sc_hd__inv_16_3/Y BR128half_1/brbufhalf_0/sky130_fd_sc_hd__inv_16_3/A VSS VSS sky130_fd_pr__nfet_01v8 ad=0p pd=0u as=0p ps=0u w=650000u l=150000u
X60 a_54569_1566# a_55839_739# a_56030_1811# VSS sky130_fd_pr__nfet_01v8 ad=0p pd=0u as=0p ps=0u w=650000u l=150000u
X61 VSS BR128half_0/sky130_fd_sc_hd__inv_16_0/A BR128half_1/brbufhalf_1/sky130_fd_sc_hd__inv_16_3/A VSS sky130_fd_pr__nfet_01v8 ad=0p pd=0u as=0p ps=0u w=650000u l=150000u
X62 VDD C[31] a_870_18706# VDD sky130_fd_pr__pfet_01v8_hvt ad=0p pd=0u as=0p ps=0u w=1e+06u l=150000u
X63 BR128half_0/brbufhalf_0/sky130_fd_sc_hd__inv_16_1/Y BR128half_0/brbufhalf_0/sky130_fd_sc_hd__inv_16_3/A VSS VSS sky130_fd_pr__nfet_01v8 ad=0p pd=0u as=0p ps=0u w=650000u l=150000u
X64 BR128half_0/brbufhalf_0/sky130_fd_sc_hd__inv_16_3/Y BR128half_0/brbufhalf_0/sky130_fd_sc_hd__inv_16_3/A VDD VDD sky130_fd_pr__pfet_01v8_hvt ad=0p pd=0u as=0p ps=0u w=1e+06u l=150000u
X65 a_14651_6419# a_14425_6509# VDD VDD sky130_fd_pr__pfet_01v8_hvt ad=0p pd=0u as=0p ps=0u w=1e+06u l=150000u
X66 VDD C[30] a_2758_18706# VDD sky130_fd_pr__pfet_01v8_hvt ad=0p pd=0u as=0p ps=0u w=1e+06u l=150000u
X67 a_50101_14292# a_50096_14194# VSS VSS sky130_fd_pr__nfet_01v8 ad=0p pd=0u as=0p ps=0u w=650000u l=150000u
X68 a_16304_13134# a_16078_12988# VSS VSS sky130_fd_pr__nfet_01v8 ad=0p pd=0u as=0p ps=0u w=650000u l=150000u
X69 a_36846_12988# C[115] VSS VSS sky130_fd_pr__nfet_01v8 ad=0p pd=0u as=0p ps=0u w=650000u l=150000u
X70 VDD a_56443_6676# a_57368_6503# VDD sky130_fd_pr__pfet_01v8_hvt ad=0p pd=0u as=0p ps=0u w=790000u l=150000u
X71 VSS BR128half_1/brbufhalf_1/sky130_fd_sc_hd__inv_16_3/A BR128half_1/brbufhalf_1/sky130_fd_sc_hd__inv_16_1/Y VSS sky130_fd_pr__nfet_01v8 ad=0p pd=0u as=0p ps=0u w=650000u l=150000u
X72 a_475_18953# a_565_18708# VSS VSS sky130_fd_pr__nfet_01v8 ad=0p pd=0u as=0p ps=0u w=520000u l=150000u
X73 a_29802_18251# a_31020_18732# a_31263_18006# VDD sky130_fd_pr__pfet_01v8_hvt ad=0p pd=0u as=0p ps=0u w=1e+06u l=150000u
X74 VDD a_45775_18953# a_45725_18734# VDD sky130_fd_pr__pfet_01v8_hvt ad=0p pd=0u as=0p ps=0u w=790000u l=150000u
X75 a_26108_13071# a_25744_13134# a_26012_13071# VDD sky130_fd_pr__pfet_01v8_hvt ad=0p pd=0u as=0p ps=0u w=1e+06u l=150000u
X76 a_27996_13071# a_27632_13134# a_27900_13071# VDD sky130_fd_pr__pfet_01v8_hvt ad=0p pd=0u as=0p ps=0u w=1e+06u l=150000u
X77 a_30017_6676# a_29749_6419# a_29568_5455# VSS sky130_fd_pr__nfet_01v8 ad=0p pd=0u as=0p ps=0u w=650000u l=150000u
X78 a_55949_6509# C[61] VDD VDD sky130_fd_pr__pfet_01v8_hvt ad=0p pd=0u as=0p ps=0u w=1e+06u l=150000u
X79 a_10730_1811# BR128half_1/brbufhalf_1/sky130_fd_sc_hd__inv_16_3/Y VSS VSS sky130_fd_pr__nfet_01v8 ad=0p pd=0u as=0p ps=0u w=650000u l=150000u
X80 BR128half_0/brbufhalf_2/sky130_fd_sc_hd__inv_16_1/Y BR128half_0/brbufhalf_1/sky130_fd_sc_hd__inv_16_3/A VDD VDD sky130_fd_pr__pfet_01v8_hvt ad=0p pd=0u as=0p ps=0u w=1e+06u l=150000u
X81 VDD BR128half_0/brbufhalf_1/sky130_fd_sc_hd__inv_16_3/Y a_56671_14292# VDD sky130_fd_pr__pfet_01v8_hvt ad=0p pd=0u as=0p ps=0u w=1e+06u l=150000u
X82 VSS a_29018_928# a_28968_763# VSS sky130_fd_pr__nfet_01v8 ad=0p pd=0u as=0p ps=0u w=520000u l=150000u
X83 BR128half_1/brbufhalf_3/sky130_fd_sc_hd__inv_16_1/Y BR128half_1/brbufhalf_0/sky130_fd_sc_hd__inv_16_3/A VDD VDD sky130_fd_pr__pfet_01v8_hvt ad=0p pd=0u as=0p ps=0u w=1e+06u l=150000u
X84 a_12912_18251# a_12146_18732# VDD VDD sky130_fd_pr__pfet_01v8_hvt ad=0p pd=0u as=0p ps=0u w=1e+06u l=150000u
X85 BR128half_0/brbufhalf_3/sky130_fd_sc_hd__inv_16_3/Y BR128half_0/brbufhalf_0/sky130_fd_sc_hd__inv_16_3/A VSS VSS sky130_fd_pr__nfet_01v8 ad=0p pd=0u as=0p ps=0u w=650000u l=150000u
X86 a_23856_13134# a_23630_12988# VSS VSS sky130_fd_pr__nfet_01v8 ad=0p pd=0u as=0p ps=0u w=650000u l=150000u
X87 a_41359_1566# a_40741_739# a_40959_1000# VSS sky130_fd_pr__nfet_01v8 ad=0p pd=0u as=0p ps=0u w=650000u l=150000u
X88 BR128half_0/brbufhalf_3/sky130_fd_sc_hd__inv_16_1/Y BR128half_0/brbufhalf_0/sky130_fd_sc_hd__inv_16_3/A VSS VSS sky130_fd_pr__nfet_01v8 ad=0p pd=0u as=0p ps=0u w=650000u l=150000u
X89 VDD a_29413_739# a_29631_1000# VDD sky130_fd_pr__pfet_01v8_hvt ad=0p pd=0u as=0p ps=0u w=1e+06u l=150000u
X90 a_41130_18251# a_42348_18732# a_42591_18006# VDD sky130_fd_pr__pfet_01v8_hvt ad=0p pd=0u as=0p ps=0u w=1e+06u l=150000u
X91 VDD a_57103_18953# a_57053_18734# VDD sky130_fd_pr__pfet_01v8_hvt ad=0p pd=0u as=0p ps=0u w=790000u l=150000u
X92 VSS BR128half_0/brbufhalf_0/sky130_fd_sc_hd__inv_16_3/A BR128half_0/brbufhalf_0/sky130_fd_sc_hd__inv_16_1/Y VSS sky130_fd_pr__nfet_01v8 ad=0p pd=0u as=0p ps=0u w=650000u l=150000u
X93 a_10875_6419# a_10649_6509# VDD VDD sky130_fd_pr__pfet_01v8_hvt ad=0p pd=0u as=0p ps=0u w=1e+06u l=150000u
X94 a_13031_6676# a_14651_6419# a_14465_5687# VSS sky130_fd_pr__nfet_01v8 ad=0p pd=0u as=0p ps=0u w=650000u l=150000u
X95 a_13143_510# a_12427_739# a_11157_1566# VDD sky130_fd_pr__pfet_01v8_hvt ad=0p pd=0u as=0p ps=0u w=1e+06u l=150000u
X96 VDD a_35077_739# a_35025_765# VDD sky130_fd_pr__pfet_01v8_hvt ad=0p pd=0u as=0p ps=0u w=1e+06u l=150000u
X97 BR128half_0/brbufhalf_2/sky130_fd_sc_hd__inv_16_1/Y BR128half_0/brbufhalf_1/sky130_fd_sc_hd__inv_16_3/A VDD VDD sky130_fd_pr__pfet_01v8_hvt ad=0p pd=0u as=0p ps=0u w=1e+06u l=150000u
X98 VDD C[65] a_57727_739# VDD sky130_fd_pr__pfet_01v8_hvt ad=0p pd=0u as=0p ps=0u w=1e+06u l=150000u
X99 a_39189_6419# a_38963_6509# VSS VSS sky130_fd_pr__nfet_01v8 ad=0p pd=0u as=0p ps=0u w=650000u l=150000u
X100 a_18572_19307# a_17804_18732# a_16586_18251# VSS sky130_fd_pr__nfet_01v8 ad=0p pd=0u as=0p ps=0u w=650000u l=150000u
X101 VDD BR128half_0/brbufhalf_0/sky130_fd_sc_hd__inv_16_3/A BR128half_0/brbufhalf_0/sky130_fd_sc_hd__inv_16_1/Y VDD sky130_fd_pr__pfet_01v8_hvt ad=0p pd=0u as=0p ps=0u w=1e+06u l=150000u
X102 a_35184_13134# a_34958_12988# VSS VSS sky130_fd_pr__nfet_01v8 ad=0p pd=0u as=0p ps=0u w=650000u l=150000u
X103 VSS BR128half_0/brbufhalf_0/sky130_fd_sc_hd__inv_16_3/A BR128half_0/brbufhalf_3/sky130_fd_sc_hd__inv_16_3/Y VSS sky130_fd_pr__nfet_01v8 ad=0p pd=0u as=0p ps=0u w=650000u l=150000u
X104 VDD a_32794_928# a_32744_763# VDD sky130_fd_pr__pfet_01v8_hvt ad=0p pd=0u as=0p ps=0u w=790000u l=150000u
X105 a_46361_18006# BR128half_0/brbufhalf_2/sky130_fd_sc_hd__inv_16_1/Y VSS VSS sky130_fd_pr__nfet_01v8 ad=0p pd=0u as=0p ps=0u w=650000u l=150000u
X106 a_27716_1811# a_27743_1000# a_27728_2061# VDD sky130_fd_pr__pfet_01v8_hvt ad=0p pd=0u as=0p ps=0u w=1e+06u l=150000u
X107 VDD BR128half_0/brbufhalf_0/sky130_fd_sc_hd__inv_16_1/Y a_10547_14292# VDD sky130_fd_pr__pfet_01v8_hvt ad=0p pd=0u as=0p ps=0u w=1e+06u l=150000u
X108 BR128half_1/brbufhalf_0/sky130_fd_sc_hd__inv_16_3/A BR128half_0/sky130_fd_sc_hd__inv_16_0/A VDD VDD sky130_fd_pr__pfet_01v8_hvt ad=0p pd=0u as=0p ps=0u w=1e+06u l=150000u
X109 VSS a_1088_18747# a_1061_18006# VSS sky130_fd_pr__nfet_01v8 ad=0p pd=0u as=0p ps=0u w=650000u l=150000u
X110 VSS BR128half_0/brbufhalf_0/sky130_fd_sc_hd__inv_16_3/A BR128half_0/brbufhalf_3/sky130_fd_sc_hd__inv_16_1/Y VSS sky130_fd_pr__nfet_01v8 ad=0p pd=0u as=0p ps=0u w=650000u l=150000u
X111 a_59496_12988# C[127] VDD VDD sky130_fd_pr__pfet_01v8_hvt ad=0p pd=0u as=0p ps=0u w=1e+06u l=150000u
X112 VDD a_27861_6419# a_27675_5687# VDD sky130_fd_pr__pfet_01v8_hvt ad=0p pd=0u as=0p ps=0u w=1e+06u l=150000u
X113 a_32017_510# a_31249_765# a_30031_1566# VSS sky130_fd_pr__nfet_01v8 ad=0p pd=0u as=0p ps=0u w=650000u l=150000u
X114 VSS a_37679_1566# a_37681_510# VSS sky130_fd_pr__nfet_01v8 ad=0p pd=0u as=0p ps=0u w=650000u l=150000u
X115 a_42736_13134# a_42510_12988# VSS VSS sky130_fd_pr__nfet_01v8 ad=0p pd=0u as=0p ps=0u w=650000u l=150000u
X116 a_16913_510# a_16911_1566# a_17224_2061# VDD sky130_fd_pr__pfet_01v8_hvt ad=0p pd=0u as=0p ps=0u w=1e+06u l=150000u
X117 a_47663_18953# a_46788_18251# VSS VSS sky130_fd_pr__nfet_01v8 ad=0p pd=0u as=0p ps=0u w=520000u l=150000u
X118 VDD a_8987_6419# a_8801_5687# VDD sky130_fd_pr__pfet_01v8_hvt ad=0p pd=0u as=0p ps=0u w=1e+06u l=150000u
X119 a_32328_2061# BR128half_1/brbufhalf_0/sky130_fd_sc_hd__inv_16_3/Y VDD VDD sky130_fd_pr__pfet_01v8_hvt ad=0p pd=0u as=0p ps=0u w=1e+06u l=150000u
X120 VSS a_17856_18706# a_17804_18732# VSS sky130_fd_pr__nfet_01v8 ad=0p pd=0u as=0p ps=0u w=650000u l=150000u
X121 a_53913_18006# BR128half_0/brbufhalf_2/sky130_fd_sc_hd__inv_16_1/Y VSS VSS sky130_fd_pr__nfet_01v8 ad=0p pd=0u as=0p ps=0u w=650000u l=150000u
X122 VDD BR128half_0/brbufhalf_1/sky130_fd_sc_hd__inv_16_3/A BR128half_0/brbufhalf_2/sky130_fd_sc_hd__inv_16_1/Y VDD sky130_fd_pr__pfet_01v8_hvt ad=0p pd=0u as=0p ps=0u w=1e+06u l=150000u
X123 a_3472_18251# a_2706_18732# a_3376_18251# VSS sky130_fd_pr__nfet_01v8 ad=0p pd=0u as=0p ps=0u w=650000u l=150000u
X124 BR128half_0/brbufhalf_1/sky130_fd_sc_hd__inv_16_1/Y BR128half_0/brbufhalf_1/sky130_fd_sc_hd__inv_16_3/A VSS VSS sky130_fd_pr__nfet_01v8 ad=0p pd=0u as=0p ps=0u w=650000u l=150000u
X125 VSS a_42629_739# a_42577_765# VSS sky130_fd_pr__nfet_01v8 ad=0p pd=0u as=0p ps=0u w=650000u l=150000u
X126 VSS BR128half_0/brbufhalf_0/sky130_fd_sc_hd__inv_16_3/A BR128half_0/brbufhalf_3/sky130_fd_sc_hd__inv_16_3/Y VSS sky130_fd_pr__nfet_01v8 ad=0p pd=0u as=0p ps=0u w=650000u l=150000u
X127 BR128half_0/sky130_fd_sc_hd__inv_16_0/A sky130_fd_sc_hd__inv_8_0/Y VSS VSS sky130_fd_pr__nfet_01v8 ad=0p pd=0u as=0p ps=0u w=650000u l=150000u
X128 a_58525_17686# BR128half_0/brbufhalf_2/sky130_fd_sc_hd__inv_16_1/Y VDD VDD sky130_fd_pr__pfet_01v8_hvt ad=0p pd=0u as=0p ps=0u w=1e+06u l=150000u
X129 a_9026_13071# a_10646_13134# a_10460_14194# VSS sky130_fd_pr__nfet_01v8 ad=0p pd=0u as=0p ps=0u w=650000u l=150000u
X130 VDD BR128half_0/brbufhalf_0/sky130_fd_sc_hd__inv_16_1/Y a_8659_14292# VDD sky130_fd_pr__pfet_01v8_hvt ad=0p pd=0u as=0p ps=0u w=1e+06u l=150000u
X131 VDD a_47003_6676# a_47928_6503# VDD sky130_fd_pr__pfet_01v8_hvt ad=0p pd=0u as=0p ps=0u w=790000u l=150000u
X132 VDD BR128half_1/brbufhalf_0/sky130_fd_sc_hd__inv_16_3/A BR128half_1/brbufhalf_3/sky130_fd_sc_hd__inv_16_3/Y VDD sky130_fd_pr__pfet_01v8_hvt ad=0p pd=0u as=0p ps=0u w=1e+06u l=150000u
X133 a_14704_18251# a_15968_18706# a_16159_18006# VSS sky130_fd_pr__nfet_01v8 ad=0p pd=0u as=0p ps=0u w=650000u l=150000u
X134 a_37452_19307# a_36684_18732# a_35466_18251# VSS sky130_fd_pr__nfet_01v8 ad=0p pd=0u as=0p ps=0u w=650000u l=150000u
X135 BR128half_1/brbufhalf_1/sky130_fd_sc_hd__inv_16_3/Y BR128half_1/brbufhalf_1/sky130_fd_sc_hd__inv_16_3/A VSS VSS sky130_fd_pr__nfet_01v8 ad=0p pd=0u as=0p ps=0u w=650000u l=150000u
X136 BR128half_1/brbufhalf_3/sky130_fd_sc_hd__inv_16_1/Y BR128half_1/brbufhalf_0/sky130_fd_sc_hd__inv_16_3/A VDD VDD sky130_fd_pr__pfet_01v8_hvt ad=0p pd=0u as=0p ps=0u w=1e+06u l=150000u
X137 a_20577_6676# a_20309_6419# a_20128_5455# VSS sky130_fd_pr__nfet_01v8 ad=0p pd=0u as=0p ps=0u w=650000u l=150000u
X138 VDD BR128half_1/brbufhalf_2/sky130_fd_sc_hd__inv_16_1/Y a_15376_5455# VDD sky130_fd_pr__pfet_01v8_hvt ad=0p pd=0u as=0p ps=0u w=1e+06u l=150000u
X139 a_18572_19307# a_17856_18706# a_16586_18251# VDD sky130_fd_pr__pfet_01v8_hvt ad=0p pd=0u as=0p ps=0u w=1e+06u l=150000u
X140 BR128half_0/brbufhalf_1/sky130_fd_sc_hd__inv_16_1/Y BR128half_0/brbufhalf_1/sky130_fd_sc_hd__inv_16_3/A VSS VSS sky130_fd_pr__nfet_01v8 ad=0p pd=0u as=0p ps=0u w=650000u l=150000u
X141 VDD sky130_fd_sc_hd__buf_2_0/X sky130_fd_sc_hd__inv_8_0/Y VDD sky130_fd_pr__pfet_01v8_hvt ad=0p pd=0u as=0p ps=0u w=1e+06u l=150000u
X142 a_39457_6676# a_39189_6419# a_39008_5455# VSS sky130_fd_pr__nfet_01v8 ad=0p pd=0u as=0p ps=0u w=650000u l=150000u
X143 a_794_737# a_1206_13134# a_1020_14194# VSS sky130_fd_pr__nfet_01v8 ad=0p pd=0u as=0p ps=0u w=650000u l=150000u
X144 VDD a_46004_928# a_45954_763# VDD sky130_fd_pr__pfet_01v8_hvt ad=0p pd=0u as=0p ps=0u w=790000u l=150000u
X145 a_43116_19307# a_42348_18732# a_41130_18251# VSS sky130_fd_pr__nfet_01v8 ad=0p pd=0u as=0p ps=0u w=650000u l=150000u
X146 a_9124_14127# a_8532_12988# VDD VDD sky130_fd_pr__pfet_01v8_hvt ad=0p pd=0u as=0p ps=0u w=1e+06u l=150000u
X147 a_45004_19307# a_44236_18732# a_43018_18251# VSS sky130_fd_pr__nfet_01v8 ad=0p pd=0u as=0p ps=0u w=650000u l=150000u
X148 a_31919_1566# a_31301_739# a_31519_1000# VSS sky130_fd_pr__nfet_01v8 ad=0p pd=0u as=0p ps=0u w=650000u l=150000u
X149 a_26255_1566# a_27473_765# a_27716_1811# VDD sky130_fd_pr__pfet_01v8_hvt ad=0p pd=0u as=0p ps=0u w=1e+06u l=150000u
X150 a_56042_2061# BR128half_1/brbufhalf_0/sky130_fd_sc_hd__inv_16_1/Y VDD VDD sky130_fd_pr__pfet_01v8_hvt ad=0p pd=0u as=0p ps=0u w=1e+06u l=150000u
X151 VSS BR128half_1/brbufhalf_3/sky130_fd_sc_hd__inv_16_3/Y a_48987_6676# VSS sky130_fd_pr__nfet_01v8 ad=0p pd=0u as=0p ps=0u w=650000u l=150000u
X152 VSS C[23] a_15968_18706# VSS sky130_fd_pr__nfet_01v8 ad=0p pd=0u as=0p ps=0u w=650000u l=150000u
X153 VSS a_36736_18706# a_36684_18732# VSS sky130_fd_pr__nfet_01v8 ad=0p pd=0u as=0p ps=0u w=650000u l=150000u
X154 VDD BR128half_0/sky130_fd_sc_hd__inv_16_0/A BR128half_0/brbufhalf_1/sky130_fd_sc_hd__inv_16_3/A VDD sky130_fd_pr__pfet_01v8_hvt ad=0p pd=0u as=0p ps=0u w=1e+06u l=150000u
X155 a_1474_13071# a_2868_12988# a_2908_14194# VDD sky130_fd_pr__pfet_01v8_hvt ad=0p pd=0u as=0p ps=0u w=1e+06u l=150000u
X156 a_16307_6509# C[40] VSS VSS sky130_fd_pr__nfet_01v8 ad=0p pd=0u as=0p ps=0u w=650000u l=150000u
X157 BR128half_1/brbufhalf_1/sky130_fd_sc_hd__inv_16_1/Y BR128half_1/brbufhalf_1/sky130_fd_sc_hd__inv_16_3/A VDD VDD sky130_fd_pr__pfet_01v8_hvt ad=0p pd=0u as=0p ps=0u w=1e+06u l=150000u
X158 a_27762_5455# a_27675_5687# a_27680_5455# VDD sky130_fd_pr__pfet_01v8_hvt ad=0p pd=0u as=0p ps=0u w=1e+06u l=150000u
X159 a_1488_18251# a_870_18706# a_1088_18747# VSS sky130_fd_pr__nfet_01v8 ad=0p pd=0u as=0p ps=0u w=650000u l=150000u
X160 BR128half_0/brbufhalf_0/sky130_fd_sc_hd__inv_16_1/Y BR128half_0/brbufhalf_0/sky130_fd_sc_hd__inv_16_3/A VDD VDD sky130_fd_pr__pfet_01v8_hvt ad=0p pd=0u as=0p ps=0u w=1e+06u l=150000u
X161 a_21672_6503# a_21502_6503# VDD VDD sky130_fd_pr__pfet_01v8_hvt ad=0p pd=0u as=0p ps=0u w=790000u l=150000u
X162 VDD BR128half_1/brbufhalf_0/sky130_fd_sc_hd__inv_16_3/A BR128half_1/brbufhalf_0/sky130_fd_sc_hd__inv_16_3/Y VDD sky130_fd_pr__pfet_01v8_hvt ad=0p pd=0u as=0p ps=0u w=1e+06u l=150000u
X163 a_3472_18251# a_2758_18706# a_3376_18251# VDD sky130_fd_pr__pfet_01v8_hvt ad=0p pd=0u as=0p ps=0u w=1e+06u l=150000u
X164 a_55994_5455# a_55989_5687# VSS VSS sky130_fd_pr__nfet_01v8 ad=0p pd=0u as=0p ps=0u w=650000u l=150000u
X165 a_29749_6419# a_29523_6509# VSS VSS sky130_fd_pr__nfet_01v8 ad=0p pd=0u as=0p ps=0u w=650000u l=150000u
X166 a_17258_5455# a_16899_5620# a_16897_6676# VDD sky130_fd_pr__pfet_01v8_hvt ad=0p pd=0u as=0p ps=0u w=1e+06u l=150000u
X167 BR128half_0/brbufhalf_0/sky130_fd_sc_hd__inv_16_3/A BR128half_0/sky130_fd_sc_hd__inv_16_0/A VSS VSS sky130_fd_pr__nfet_01v8 ad=0p pd=0u as=0p ps=0u w=650000u l=150000u
X168 VSS BR128half_0/brbufhalf_1/sky130_fd_sc_hd__inv_16_3/A BR128half_0/brbufhalf_1/sky130_fd_sc_hd__inv_16_1/Y VSS sky130_fd_pr__nfet_01v8 ad=0p pd=0u as=0p ps=0u w=650000u l=150000u
X169 a_23757_14292# a_23670_14194# a_23675_14292# VDD sky130_fd_pr__pfet_01v8_hvt ad=0p pd=0u as=0p ps=0u w=1e+06u l=150000u
X170 VDD a_58102_13071# a_59027_12994# VDD sky130_fd_pr__pfet_01v8_hvt ad=0p pd=0u as=0p ps=0u w=790000u l=150000u
X171 BR128half_1/brbufhalf_0/sky130_fd_sc_hd__inv_16_3/A BR128half_0/sky130_fd_sc_hd__inv_16_0/A VDD VDD sky130_fd_pr__pfet_01v8_hvt ad=0p pd=0u as=0p ps=0u w=1e+06u l=150000u
X172 a_33578_18251# a_34848_18706# a_35039_18006# VSS sky130_fd_pr__nfet_01v8 ad=0p pd=0u as=0p ps=0u w=650000u l=150000u
X173 a_18421_6419# a_18195_6509# VDD VDD sky130_fd_pr__pfet_01v8_hvt ad=0p pd=0u as=0p ps=0u w=1e+06u l=150000u
X174 a_37452_19307# a_36736_18706# a_35466_18251# VDD sky130_fd_pr__pfet_01v8_hvt ad=0p pd=0u as=0p ps=0u w=1e+06u l=150000u
X175 a_49757_12994# a_49587_12994# VSS VSS sky130_fd_pr__nfet_01v8 ad=0p pd=0u as=0p ps=0u w=520000u l=150000u
X176 a_32001_6676# a_32003_5620# VSS VSS sky130_fd_pr__nfet_01v8 ad=0p pd=0u as=0p ps=0u w=650000u l=150000u
X177 VDD a_4480_928# a_4430_763# VDD sky130_fd_pr__pfet_01v8_hvt ad=0p pd=0u as=0p ps=0u w=790000u l=150000u
X178 BR128half_0/brbufhalf_2/sky130_fd_sc_hd__inv_16_1/Y BR128half_0/brbufhalf_1/sky130_fd_sc_hd__inv_16_3/A VDD VDD sky130_fd_pr__pfet_01v8_hvt ad=0p pd=0u as=0p ps=0u w=1e+06u l=150000u
X179 VSS a_28239_1566# a_28241_510# VSS sky130_fd_pr__nfet_01v8 ad=0p pd=0u as=0p ps=0u w=650000u l=150000u
X180 VSS BR128half_0/brbufhalf_0/sky130_fd_sc_hd__inv_16_1/Y a_11010_13071# VSS sky130_fd_pr__nfet_01v8 ad=0p pd=0u as=0p ps=0u w=650000u l=150000u
X181 BR128half_0/brbufhalf_1/sky130_fd_sc_hd__inv_16_3/Y BR128half_0/brbufhalf_1/sky130_fd_sc_hd__inv_16_3/A VSS VSS sky130_fd_pr__nfet_01v8 ad=0p pd=0u as=0p ps=0u w=650000u l=150000u
X182 a_28225_6676# a_27635_6509# a_28129_6676# VSS sky130_fd_pr__nfet_01v8 ad=0p pd=0u as=0p ps=0u w=650000u l=150000u
X183 a_28129_6676# a_29749_6419# a_29563_5687# VSS sky130_fd_pr__nfet_01v8 ad=0p pd=0u as=0p ps=0u w=650000u l=150000u
X184 VSS C[13] a_34848_18706# VSS sky130_fd_pr__nfet_01v8 ad=0p pd=0u as=0p ps=0u w=650000u l=150000u
X185 VSS C[12] a_36736_18706# VSS sky130_fd_pr__nfet_01v8 ad=0p pd=0u as=0p ps=0u w=650000u l=150000u
X186 VSS a_56443_6676# a_57368_6503# VSS sky130_fd_pr__nfet_01v8 ad=0p pd=0u as=0p ps=0u w=520000u l=150000u
X187 a_44708_1811# a_44735_1000# a_44720_2061# VDD sky130_fd_pr__pfet_01v8_hvt ad=0p pd=0u as=0p ps=0u w=1e+06u l=150000u
X188 VSS BR128half_0/sky130_fd_sc_hd__inv_16_0/A BR128half_1/brbufhalf_1/sky130_fd_sc_hd__inv_16_3/A VSS sky130_fd_pr__nfet_01v8 ad=0p pd=0u as=0p ps=0u w=650000u l=150000u
X189 a_20687_1566# a_19921_765# a_20591_1566# VSS sky130_fd_pr__nfet_01v8 ad=0p pd=0u as=0p ps=0u w=650000u l=150000u
X190 VSS BR128half_0/brbufhalf_0/sky130_fd_sc_hd__inv_16_1/Y a_3458_13071# VSS sky130_fd_pr__nfet_01v8 ad=0p pd=0u as=0p ps=0u w=650000u l=150000u
X191 a_39567_1566# a_38801_765# a_39471_1566# VSS sky130_fd_pr__nfet_01v8 ad=0p pd=0u as=0p ps=0u w=650000u l=150000u
X192 VSS BR128half_1/brbufhalf_1/sky130_fd_sc_hd__inv_16_3/A BR128half_1/brbufhalf_1/sky130_fd_sc_hd__inv_16_1/Y VSS sky130_fd_pr__nfet_01v8 ad=0p pd=0u as=0p ps=0u w=650000u l=150000u
X193 VSS a_40346_928# a_40296_763# VSS sky130_fd_pr__nfet_01v8 ad=0p pd=0u as=0p ps=0u w=520000u l=150000u
X194 a_33905_510# a_33903_1566# a_34216_2061# VDD sky130_fd_pr__pfet_01v8_hvt ad=0p pd=0u as=0p ps=0u w=1e+06u l=150000u
X195 VSS C[9] a_42400_18706# VSS sky130_fd_pr__nfet_01v8 ad=0p pd=0u as=0p ps=0u w=650000u l=150000u
X196 a_54438_19307# a_54436_18251# a_54749_17686# VDD sky130_fd_pr__pfet_01v8_hvt ad=0p pd=0u as=0p ps=0u w=1e+06u l=150000u
X197 a_42637_14292# a_42550_14194# a_42555_14292# VDD sky130_fd_pr__pfet_01v8_hvt ad=0p pd=0u as=0p ps=0u w=1e+06u l=150000u
X198 BR128half_1/brbufhalf_0/sky130_fd_sc_hd__inv_16_3/Y BR128half_1/brbufhalf_0/sky130_fd_sc_hd__inv_16_3/A VSS VSS sky130_fd_pr__nfet_01v8 ad=0p pd=0u as=0p ps=0u w=650000u l=150000u
X199 VDD a_29184_18706# a_29132_18732# VDD sky130_fd_pr__pfet_01v8_hvt ad=0p pd=0u as=0p ps=0u w=1e+06u l=150000u
X200 VDD BR128half_0/brbufhalf_1/sky130_fd_sc_hd__inv_16_3/A BR128half_0/brbufhalf_2/sky130_fd_sc_hd__inv_16_1/Y VDD sky130_fd_pr__pfet_01v8_hvt ad=0p pd=0u as=0p ps=0u w=1e+06u l=150000u
X201 VSS a_24463_1566# a_24465_510# VSS sky130_fd_pr__nfet_01v8 ad=0p pd=0u as=0p ps=0u w=650000u l=150000u
X202 VSS BR128half_0/brbufhalf_0/sky130_fd_sc_hd__inv_16_3/A BR128half_0/brbufhalf_3/sky130_fd_sc_hd__inv_16_3/Y VSS sky130_fd_pr__nfet_01v8 ad=0p pd=0u as=0p ps=0u w=650000u l=150000u
X203 VDD BR128half_0/sky130_fd_sc_hd__inv_16_0/A BR128half_0/brbufhalf_0/sky130_fd_sc_hd__inv_16_3/A VDD sky130_fd_pr__pfet_01v8_hvt ad=0p pd=0u as=0p ps=0u w=1e+06u l=150000u
X204 VSS BR128half_1/brbufhalf_3/sky130_fd_sc_hd__inv_16_3/Y a_50875_6676# VSS sky130_fd_pr__nfet_01v8 ad=0p pd=0u as=0p ps=0u w=650000u l=150000u
X205 a_55765_14292# a_55760_14194# VSS VSS sky130_fd_pr__nfet_01v8 ad=0p pd=0u as=0p ps=0u w=650000u l=150000u
X206 a_50056_12988# C[122] VSS VSS sky130_fd_pr__nfet_01v8 ad=0p pd=0u as=0p ps=0u w=650000u l=150000u
X207 a_51944_12988# C[123] VSS VSS sky130_fd_pr__nfet_01v8 ad=0p pd=0u as=0p ps=0u w=650000u l=150000u
X208 a_18474_18251# a_17804_18732# a_18074_18747# VDD sky130_fd_pr__pfet_01v8_hvt ad=0p pd=0u as=0p ps=0u w=1e+06u l=150000u
X209 a_46602_2061# BR128half_1/brbufhalf_0/sky130_fd_sc_hd__inv_16_1/Y VDD VDD sky130_fd_pr__pfet_01v8_hvt ad=0p pd=0u as=0p ps=0u w=1e+06u l=150000u
X210 BR128half_1/brbufhalf_0/sky130_fd_sc_hd__inv_16_1/Y BR128half_1/brbufhalf_0/sky130_fd_sc_hd__inv_16_3/A VDD VDD sky130_fd_pr__pfet_01v8_hvt ad=0p pd=0u as=0p ps=0u w=1e+06u l=150000u
X211 VSS BR128half_1/brbufhalf_2/sky130_fd_sc_hd__inv_16_1/Y a_14470_5455# VSS sky130_fd_pr__nfet_01v8 ad=0p pd=0u as=0p ps=0u w=650000u l=150000u
X212 a_3605_1566# a_2987_739# a_3205_1000# VSS sky130_fd_pr__nfet_01v8 ad=0p pd=0u as=0p ps=0u w=650000u l=150000u