* NGSPICE file created from NBR128_flat.ext - technology: sky130A

.subckt NBR128_flat RESET C[0] C[1] C[2] C[3] C[4] C[5] C[7] C[8] C[9] C[10] C[11]
+ C[12] C[13] C[14] C[15] C[16] C[17] C[18] C[19] C[20] C[21] C[22] C[23] C[24] C[25]
+ C[26] C[27] C[28] C[29] C[30] C[6] C[31] C[32] C[33] C[34] C[35] C[36] C[37] C[38]
+ C[39] C[40] C[41] C[42] C[43] C[44] C[45] C[46] C[47] C[48] C[49] C[50] C[51] C[52]
+ C[53] C[54] C[55] C[56] C[57] C[58] C[59] C[60] C[61] C[62] C[95] C[96] C[97] C[98]
+ C[99] C[100] C[101] C[102] C[103] C[104] C[105] C[106] C[107] C[108] C[109] C[110]
+ C[111] C[112] C[113] C[114] C[115] C[116] C[117] C[118] C[119] C[120] C[121] C[122]
+ C[123] C[124] C[125] C[126] C[127] C[63] C[64] C[65] C[66] C[67] C[68] C[69] C[70]
+ C[71] C[72] C[73] C[74] C[75] C[76] C[77] C[78] C[79] C[80] C[81] C[82] C[83] C[84]
+ C[85] C[86] C[87] C[88] C[89] C[90] C[91] C[92] C[93] C[94] OUT VDD VSS
X0 VDD a_57289_5630# a_57816_6380# VDD sky130_fd_pr__pfet_01v8_hvt ad=0p pd=0u as=0p ps=0u w=790000u l=150000u
X1 VSS a_1152_508# a_1102_343# VSS sky130_fd_pr__nfet_01v8 ad=0p pd=0u as=0p ps=0u w=520000u l=150000u
X2 NBR128half_bottom_0/sky130_fd_sc_hd__inv_16_1/Y NBR128half_0/sky130_fd_sc_hd__inv_16_4/A VDD VDD sky130_fd_pr__pfet_01v8_hvt ad=0p pd=0u as=0p ps=0u w=1e+06u l=150000u
X3 a_10168_861# a_11173_1079# a_11113_518# VDD sky130_fd_pr__pfet_01v8_hvt ad=0p pd=0u as=0p ps=0u w=1e+06u l=150000u
X4 a_38440_1681# NBR128half_bottom_0/nbrhalf_0/sky130_fd_sc_hd__inv_16_3/Y VDD VDD sky130_fd_pr__pfet_01v8_hvt ad=0p pd=0u as=0p ps=0u w=1e+06u l=150000u
X5 a_34901_18776# a_34477_18040# VSS VSS sky130_fd_pr__nfet_01v8 ad=0p pd=0u as=0p ps=0u w=520000u l=150000u
X6 NBR128half_0/sky130_fd_sc_hd__inv_16_4/Y NBR128half_0/sky130_fd_sc_hd__inv_16_4/A VSS VSS sky130_fd_pr__nfet_01v8 ad=0p pd=0u as=0p ps=0u w=650000u l=150000u
X7 a_14574_6924# a_14404_6924# VDD VDD sky130_fd_pr__pfet_01v8_hvt ad=0p pd=0u as=0p ps=0u w=790000u l=150000u
X8 VDD NBR128half_0/sky130_fd_sc_hd__inv_16_4/Y NBR128half_0/nbrhalf_2/sky130_fd_sc_hd__inv_16_3/Y VDD sky130_fd_pr__pfet_01v8_hvt ad=0p pd=0u as=0p ps=0u w=1e+06u l=150000u
X9 a_12924_12574# C[101] VDD VDD sky130_fd_pr__pfet_01v8_hvt ad=0p pd=0u as=0p ps=0u w=1e+06u l=150000u
X10 VSS NBR128half_0/sky130_fd_sc_hd__inv_16_4/A NBR128half_bottom_0/nbrhalf_128_0/sky130_fd_sc_hd__inv_16_3/A VSS sky130_fd_pr__nfet_01v8 ad=0p pd=0u as=0p ps=0u w=650000u l=150000u
X11 VDD NBR128half_0/sky130_fd_sc_hd__inv_16_4/Y NBR128half_0/nbrhalf_1/sky130_fd_sc_hd__inv_16_3/Y VDD sky130_fd_pr__pfet_01v8_hvt ad=0p pd=0u as=0p ps=0u w=1e+06u l=150000u
X12 VSS NBR128half_0/nbrhalf_1/sky130_fd_sc_hd__inv_16_1/Y a_43003_13912# VSS sky130_fd_pr__nfet_01v8 ad=0p pd=0u as=0p ps=0u w=650000u l=150000u
X13 VDD a_49999_19374# a_49949_19155# VDD sky130_fd_pr__pfet_01v8_hvt ad=0p pd=0u as=0p ps=0u w=790000u l=150000u
X14 NBR128half_0/nbrhalf_0/sky130_fd_sc_hd__inv_16_1/Y NBR128half_0/sky130_fd_sc_hd__inv_16_1/Y VSS VSS sky130_fd_pr__nfet_01v8 ad=0p pd=0u as=0p ps=0u w=650000u l=150000u
X15 a_33645_13118# a_32526_13079# a_33563_13118# VDD sky130_fd_pr__pfet_01v8_hvt ad=0p pd=0u as=0p ps=0u w=1e+06u l=150000u
X16 VDD NBR128half_bottom_0/nbrhalf_128_0/sky130_fd_sc_hd__inv_16_3/A NBR128half_bottom_0/nbrhalf_1/sky130_fd_sc_hd__inv_16_3/Y VDD sky130_fd_pr__pfet_01v8_hvt ad=0p pd=0u as=0p ps=0u w=1e+06u l=150000u
X17 a_59960_19299# NBR128half_0/nbrhalf_2/sky130_fd_sc_hd__inv_16_1/Y VSS VSS sky130_fd_pr__nfet_01v8 ad=0p pd=0u as=0p ps=0u w=650000u l=150000u
X18 a_9025_13912# a_7984_14117# VSS VSS sky130_fd_pr__nfet_01v8 ad=0p pd=0u as=0p ps=0u w=650000u l=150000u
X19 a_3361_13118# a_2324_13079# VSS VSS sky130_fd_pr__nfet_01v8 ad=0p pd=0u as=0p ps=0u w=650000u l=150000u
X20 VSS a_19535_5630# a_20062_6380# VSS sky130_fd_pr__nfet_01v8 ad=0p pd=0u as=0p ps=0u w=520000u l=150000u
X21 NBR128half_bottom_0/nbrhalf_128_0/sky130_fd_sc_hd__inv_16_1/Y NBR128half_bottom_0/nbrhalf_128_0/sky130_fd_sc_hd__inv_16_3/A VDD VDD sky130_fd_pr__pfet_01v8_hvt ad=0p pd=0u as=0p ps=0u w=1e+06u l=150000u
X22 a_28099_518# a_28143_670# a_27154_1405# VDD sky130_fd_pr__pfet_01v8_hvt ad=0p pd=0u as=0p ps=0u w=1e+06u l=150000u
X23 a_19087_6923# a_18811_6923# VSS VSS sky130_fd_pr__nfet_01v8 ad=0p pd=0u as=0p ps=0u w=650000u l=150000u
X24 VSS a_31919_671# a_31935_1080# VSS sky130_fd_pr__nfet_01v8 ad=0p pd=0u as=0p ps=0u w=650000u l=150000u
X25 a_37018_1105# a_36594_1405# VDD VDD sky130_fd_pr__pfet_01v8_hvt ad=0p pd=0u as=0p ps=0u w=790000u l=150000u
X26 NBR128half_0/nbrhalf_2/sky130_fd_sc_hd__inv_16_3/Y NBR128half_0/sky130_fd_sc_hd__inv_16_4/Y VDD VDD sky130_fd_pr__pfet_01v8_hvt ad=0p pd=0u as=0p ps=0u w=1e+06u l=150000u
X27 a_47002_5835# a_47125_6923# a_47849_5630# VSS sky130_fd_pr__nfet_01v8 ad=0p pd=0u as=0p ps=0u w=650000u l=150000u
X28 VSS NBR128half_0/sky130_fd_sc_hd__inv_16_1/Y NBR128half_0/nbrhalf_0/sky130_fd_sc_hd__inv_16_1/Y VSS sky130_fd_pr__nfet_01v8 ad=0p pd=0u as=0p ps=0u w=650000u l=150000u
X29 VDD NBR128half_0/sky130_fd_sc_hd__inv_16_1/Y NBR128half_0/nbrhalf_0/sky130_fd_sc_hd__inv_16_3/Y VDD sky130_fd_pr__pfet_01v8_hvt ad=0p pd=0u as=0p ps=0u w=1e+06u l=150000u
X30 a_12772_19299# NBR128half_0/nbrhalf_3/sky130_fd_sc_hd__inv_16_3/Y VSS VSS sky130_fd_pr__nfet_01v8 ad=0p pd=0u as=0p ps=0u w=650000u l=150000u
X31 a_21194_14117# a_20470_12574# a_20347_13118# VDD sky130_fd_pr__pfet_01v8_hvt ad=0p pd=0u as=0p ps=0u w=1e+06u l=150000u
X32 NBR128half_0/sky130_fd_sc_hd__inv_16_1/Y NBR128half_0/sky130_fd_sc_hd__inv_16_4/A VSS VSS sky130_fd_pr__nfet_01v8 ad=0p pd=0u as=0p ps=0u w=650000u l=150000u
X33 a_13881_6668# a_13429_6923# a_13030_5835# VSS sky130_fd_pr__nfet_01v8 ad=0p pd=0u as=0p ps=0u w=650000u l=150000u
X34 a_8475_19374# a_8051_18584# VSS VSS sky130_fd_pr__nfet_01v8 ad=0p pd=0u as=0p ps=0u w=520000u l=150000u
X35 a_1677_1557# a_2616_1406# a_2574_1682# VDD sky130_fd_pr__pfet_01v8_hvt ad=0p pd=0u as=0p ps=0u w=1e+06u l=150000u
X36 NBR128half_bottom_0/nbrhalf_128_0/sky130_fd_sc_hd__inv_16_3/A NBR128half_0/sky130_fd_sc_hd__inv_16_4/A VDD VDD sky130_fd_pr__pfet_01v8_hvt ad=0p pd=0u as=0p ps=0u w=1e+06u l=150000u
X37 VSS NBR128half_bottom_0/nbrhalf_128_0/sky130_fd_sc_hd__inv_16_3/A NBR128half_bottom_0/nbrhalf_128_0/sky130_fd_sc_hd__inv_16_1/Y VSS sky130_fd_pr__nfet_01v8 ad=0p pd=0u as=0p ps=0u w=650000u l=150000u
X38 VDD a_30634_14118# a_31161_13118# VDD sky130_fd_pr__pfet_01v8_hvt ad=0p pd=0u as=0p ps=0u w=790000u l=150000u
X39 a_54529_1556# a_54585_1079# a_53580_861# VSS sky130_fd_pr__nfet_01v8 ad=0p pd=0u as=0p ps=0u w=650000u l=150000u
X40 VDD a_6816_507# a_6766_342# VDD sky130_fd_pr__pfet_01v8_hvt ad=0p pd=0u as=0p ps=0u w=790000u l=150000u
X41 NBR128half_bottom_0/nbrhalf_0/sky130_fd_sc_hd__inv_16_1/Y NBR128half_bottom_0/sky130_fd_sc_hd__inv_16_1/Y VDD VDD sky130_fd_pr__pfet_01v8_hvt ad=0p pd=0u as=0p ps=0u w=1e+06u l=150000u
X42 a_3332_19299# NBR128half_0/nbrhalf_3/sky130_fd_sc_hd__inv_16_3/Y VSS VSS sky130_fd_pr__nfet_01v8 ad=0p pd=0u as=0p ps=0u w=650000u l=150000u
X43 NBR128half_0/nbrhalf_2/sky130_fd_sc_hd__inv_16_3/Y NBR128half_0/sky130_fd_sc_hd__inv_16_4/Y VDD VDD sky130_fd_pr__pfet_01v8_hvt ad=0p pd=0u as=0p ps=0u w=1e+06u l=150000u
X44 a_26410_12574# a_26134_12574# VDD VDD sky130_fd_pr__pfet_01v8_hvt ad=0p pd=0u as=0p ps=0u w=1e+06u l=150000u
X45 VSS NBR128half_bottom_0/nbrhalf_128_0/sky130_fd_sc_hd__inv_16_3/A NBR128half_bottom_0/nbrhalf_128_0/sky130_fd_sc_hd__inv_16_1/Y VSS sky130_fd_pr__nfet_01v8 ad=0p pd=0u as=0p ps=0u w=650000u l=150000u
X46 a_1555_13912# a_1242_861# a_1473_13912# VDD sky130_fd_pr__pfet_01v8_hvt ad=0p pd=0u as=0p ps=0u w=1e+06u l=150000u
X47 VSS a_37018_1105# a_36968_886# VSS sky130_fd_pr__nfet_01v8 ad=0p pd=0u as=0p ps=0u w=520000u l=150000u
X48 VDD NBR128half_bottom_0/sky130_fd_sc_hd__inv_16_1/Y NBR128half_bottom_0/nbrhalf_0/sky130_fd_sc_hd__inv_16_3/Y VDD sky130_fd_pr__pfet_01v8_hvt ad=0p pd=0u as=0p ps=0u w=1e+06u l=150000u
X49 a_10363_19374# a_9939_18584# VDD VDD sky130_fd_pr__pfet_01v8_hvt ad=0p pd=0u as=0p ps=0u w=790000u l=150000u
X50 VSS NBR128half_0/sky130_fd_sc_hd__inv_16_1/Y NBR128half_0/nbrhalf_3/sky130_fd_sc_hd__inv_16_1/Y VSS sky130_fd_pr__nfet_01v8 ad=0p pd=0u as=0p ps=0u w=650000u l=150000u
X51 VSS a_53288_13079# a_53811_12573# VSS sky130_fd_pr__nfet_01v8 ad=0p pd=0u as=0p ps=0u w=520000u l=150000u
X52 a_27899_13118# a_28298_12574# a_28750_13079# VDD sky130_fd_pr__pfet_01v8_hvt ad=0p pd=0u as=0p ps=0u w=1e+06u l=150000u
X53 a_29000_1681# NBR128half_bottom_0/nbrhalf_1/sky130_fd_sc_hd__inv_16_1/Y VDD VDD sky130_fd_pr__pfet_01v8_hvt ad=0p pd=0u as=0p ps=0u w=1e+06u l=150000u
X54 a_6392_1405# a_7397_1079# a_7341_1556# VDD sky130_fd_pr__pfet_01v8_hvt ad=0p pd=0u as=0p ps=0u w=1e+06u l=150000u
X55 VDD a_17422_13079# a_17945_12573# VDD sky130_fd_pr__pfet_01v8_hvt ad=0p pd=0u as=0p ps=0u w=790000u l=150000u
X56 VSS a_17714_1406# a_16775_1557# VSS sky130_fd_pr__nfet_01v8 ad=0p pd=0u as=0p ps=0u w=650000u l=150000u
X57 a_923_19373# a_1013_19128# VDD VDD sky130_fd_pr__pfet_01v8_hvt ad=0p pd=0u as=0p ps=0u w=790000u l=150000u
X58 a_38253_18584# a_39242_19167# a_39198_19299# VSS sky130_fd_pr__nfet_01v8 ad=0p pd=0u as=0p ps=0u w=650000u l=150000u
X59 a_1444_19298# a_1504_18801# a_1013_18584# VSS sky130_fd_pr__nfet_01v8 ad=0p pd=0u as=0p ps=0u w=650000u l=150000u
X60 a_40074_14117# a_39350_12574# a_39227_13118# VDD sky130_fd_pr__pfet_01v8_hvt ad=0p pd=0u as=0p ps=0u w=1e+06u l=150000u
X61 a_33242_507# a_32818_862# VDD VDD sky130_fd_pr__pfet_01v8_hvt ad=0p pd=0u as=0p ps=0u w=790000u l=150000u
X62 a_54525_518# a_54585_1079# a_53580_1405# VSS sky130_fd_pr__nfet_01v8 ad=0p pd=0u as=0p ps=0u w=650000u l=150000u
X63 a_41962_14117# a_41238_12574# a_41115_13118# VDD sky130_fd_pr__pfet_01v8_hvt ad=0p pd=0u as=0p ps=0u w=1e+06u l=150000u
X64 NBR128half_bottom_0/nbrhalf_128_0/sky130_fd_sc_hd__inv_16_1/Y NBR128half_bottom_0/nbrhalf_128_0/sky130_fd_sc_hd__inv_16_3/A VDD VDD sky130_fd_pr__pfet_01v8_hvt ad=0p pd=0u as=0p ps=0u w=1e+06u l=150000u
X65 VSS a_28975_5630# a_29502_6380# VSS sky130_fd_pr__nfet_01v8 ad=0p pd=0u as=0p ps=0u w=520000u l=150000u
X66 a_11993_6668# a_11265_6923# a_11142_5835# VDD sky130_fd_pr__pfet_01v8_hvt ad=0p pd=0u as=0p ps=0u w=1e+06u l=150000u
X67 VDD NBR128half_0/sky130_fd_sc_hd__inv_16_4/Y NBR128half_0/nbrhalf_2/sky130_fd_sc_hd__inv_16_3/Y VDD sky130_fd_pr__pfet_01v8_hvt ad=0p pd=0u as=0p ps=0u w=1e+06u l=150000u
X68 VDD a_28750_13079# a_29273_12573# VDD sky130_fd_pr__pfet_01v8_hvt ad=0p pd=0u as=0p ps=0u w=790000u l=150000u
X69 a_8009_18860# NBR128half_0/nbrhalf_3/sky130_fd_sc_hd__inv_16_3/Y VDD VDD sky130_fd_pr__pfet_01v8_hvt ad=0p pd=0u as=0p ps=0u w=1e+06u l=150000u
X70 NBR128half_0/nbrhalf_0/sky130_fd_sc_hd__inv_16_3/Y NBR128half_0/sky130_fd_sc_hd__inv_16_1/Y VDD VDD sky130_fd_pr__pfet_01v8_hvt ad=0p pd=0u as=0p ps=0u w=1e+06u l=150000u
X71 VDD NBR128half_0/nbrhalf_0/sky130_fd_sc_hd__inv_16_1/Y a_9107_13118# VDD sky130_fd_pr__pfet_01v8_hvt ad=0p pd=0u as=0p ps=0u w=1e+06u l=150000u
X72 VSS a_40370_861# a_39427_518# VSS sky130_fd_pr__nfet_01v8 ad=0p pd=0u as=0p ps=0u w=650000u l=150000u
X73 VSS NBR128half_bottom_0/sky130_fd_sc_hd__inv_16_1/Y NBR128half_bottom_0/nbrhalf_2/sky130_fd_sc_hd__inv_16_1/Y VSS sky130_fd_pr__nfet_01v8 ad=0p pd=0u as=0p ps=0u w=650000u l=150000u
X74 NBR128half_0/nbrhalf_0/sky130_fd_sc_hd__inv_16_3/Y NBR128half_0/sky130_fd_sc_hd__inv_16_1/Y VSS VSS sky130_fd_pr__nfet_01v8 ad=0p pd=0u as=0p ps=0u w=650000u l=150000u
X75 VDD a_51629_6668# a_52152_6924# VDD sky130_fd_pr__pfet_01v8_hvt ad=0p pd=0u as=0p ps=0u w=790000u l=150000u
X76 a_22435_518# a_23378_861# a_23336_887# VDD sky130_fd_pr__pfet_01v8_hvt ad=0p pd=0u as=0p ps=0u w=1e+06u l=150000u
X77 a_45091_518# a_45135_670# a_44146_1405# VDD sky130_fd_pr__pfet_01v8_hvt ad=0p pd=0u as=0p ps=0u w=1e+06u l=150000u
X78 VDD a_36302_13079# a_36825_12573# VDD sky130_fd_pr__pfet_01v8_hvt ad=0p pd=0u as=0p ps=0u w=790000u l=150000u
X79 a_28251_6923# C[45] VSS VSS sky130_fd_pr__nfet_01v8 ad=0p pd=0u as=0p ps=0u w=650000u l=150000u
X80 a_36079_6923# a_35803_6923# VSS VSS sky130_fd_pr__nfet_01v8 ad=0p pd=0u as=0p ps=0u w=650000u l=150000u
X81 a_11989_5630# a_11265_6923# a_11142_6629# VDD sky130_fd_pr__pfet_01v8_hvt ad=0p pd=0u as=0p ps=0u w=1e+06u l=150000u
X82 NBR128half_bottom_0/nbrhalf_128_0/sky130_fd_sc_hd__inv_16_3/Y NBR128half_bottom_0/nbrhalf_128_0/sky130_fd_sc_hd__inv_16_3/A VSS VSS sky130_fd_pr__nfet_01v8 ad=0p pd=0u as=0p ps=0u w=650000u l=150000u
X83 a_19797_18776# a_19373_18040# VSS VSS sky130_fd_pr__nfet_01v8 ad=0p pd=0u as=0p ps=0u w=520000u l=150000u
X84 a_27874_18261# a_28813_18040# a_28771_18066# VDD sky130_fd_pr__pfet_01v8_hvt ad=0p pd=0u as=0p ps=0u w=1e+06u l=150000u
X85 VDD a_21914_507# a_21864_342# VDD sky130_fd_pr__pfet_01v8_hvt ad=0p pd=0u as=0p ps=0u w=790000u l=150000u
X86 NBR128half_bottom_0/nbrhalf_2/sky130_fd_sc_hd__inv_16_3/Y NBR128half_bottom_0/sky130_fd_sc_hd__inv_16_1/Y VSS VSS sky130_fd_pr__nfet_01v8 ad=0p pd=0u as=0p ps=0u w=650000u l=150000u
X87 VSS a_13715_18040# a_12776_18261# VSS sky130_fd_pr__nfet_01v8 ad=0p pd=0u as=0p ps=0u w=650000u l=150000u
X88 a_18344_6924# a_18174_6924# VDD VDD sky130_fd_pr__pfet_01v8_hvt ad=0p pd=0u as=0p ps=0u w=790000u l=150000u
X89 VSS NBR128half_bottom_0/sky130_fd_sc_hd__inv_16_1/Y NBR128half_bottom_0/nbrhalf_2/sky130_fd_sc_hd__inv_16_1/Y VSS sky130_fd_pr__nfet_01v8 ad=0p pd=0u as=0p ps=0u w=650000u l=150000u
X90 a_38253_18584# a_39258_18802# a_39198_19299# VDD sky130_fd_pr__pfet_01v8_hvt ad=0p pd=0u as=0p ps=0u w=1e+06u l=150000u
X91 a_46744_19298# NBR128half_0/nbrhalf_2/sky130_fd_sc_hd__inv_16_1/Y VSS VSS sky130_fd_pr__nfet_01v8 ad=0p pd=0u as=0p ps=0u w=650000u l=150000u
X92 NBR128half_0/nbrhalf_0/sky130_fd_sc_hd__inv_16_3/Y NBR128half_0/sky130_fd_sc_hd__inv_16_1/Y VDD VDD sky130_fd_pr__pfet_01v8_hvt ad=0p pd=0u as=0p ps=0u w=1e+06u l=150000u
X93 a_52093_13117# a_51923_13117# VDD VDD sky130_fd_pr__pfet_01v8_hvt ad=0p pd=0u as=0p ps=0u w=790000u l=150000u
X94 a_53981_13117# a_53811_13117# VDD VDD sky130_fd_pr__pfet_01v8_hvt ad=0p pd=0u as=0p ps=0u w=790000u l=150000u
X95 NBR128half_bottom_0/nbrhalf_0/sky130_fd_sc_hd__inv_16_1/Y NBR128half_bottom_0/sky130_fd_sc_hd__inv_16_1/Y VSS VSS sky130_fd_pr__nfet_01v8 ad=0p pd=0u as=0p ps=0u w=650000u l=150000u
X96 NBR128half_bottom_0/nbrhalf_128_0/sky130_fd_sc_hd__inv_16_3/Y NBR128half_bottom_0/nbrhalf_128_0/sky130_fd_sc_hd__inv_16_3/A VSS VSS sky130_fd_pr__nfet_01v8 ad=0p pd=0u as=0p ps=0u w=650000u l=150000u
X97 a_53580_861# a_54569_670# a_54525_518# VSS sky130_fd_pr__nfet_01v8 ad=0p pd=0u as=0p ps=0u w=650000u l=150000u
X98 a_33538_18261# a_34477_18040# a_34435_18066# VDD sky130_fd_pr__pfet_01v8_hvt ad=0p pd=0u as=0p ps=0u w=1e+06u l=150000u
X99 a_48636_18261# NBR128half_0/nbrhalf_2/sky130_fd_sc_hd__inv_16_1/Y VSS VSS sky130_fd_pr__nfet_01v8 ad=0p pd=0u as=0p ps=0u w=650000u l=150000u
X100 a_20347_13912# a_19306_14117# VSS VSS sky130_fd_pr__nfet_01v8 ad=0p pd=0u as=0p ps=0u w=650000u l=150000u
X101 a_50778_6629# a_49741_6668# VSS VSS sky130_fd_pr__nfet_01v8 ad=0p pd=0u as=0p ps=0u w=650000u l=150000u
X102 VSS a_27578_1105# a_27528_886# VSS sky130_fd_pr__nfet_01v8 ad=0p pd=0u as=0p ps=0u w=520000u l=150000u
X103 VDD NBR128half_bottom_0/sky130_fd_sc_hd__inv_16_1/Y NBR128half_bottom_0/nbrhalf_0/sky130_fd_sc_hd__inv_16_3/Y VDD sky130_fd_pr__pfet_01v8_hvt ad=0p pd=0u as=0p ps=0u w=1e+06u l=150000u
X104 VSS a_4275_18040# a_3336_18261# VSS sky130_fd_pr__nfet_01v8 ad=0p pd=0u as=0p ps=0u w=650000u l=150000u
X105 a_9377_6923# C[35] VDD VDD sky130_fd_pr__pfet_01v8_hvt ad=0p pd=0u as=0p ps=0u w=1e+06u l=150000u
X106 a_42682_507# a_42258_861# VSS VSS sky130_fd_pr__nfet_01v8 ad=0p pd=0u as=0p ps=0u w=520000u l=150000u
X107 VDD a_2811_18776# a_2761_18611# VDD sky130_fd_pr__pfet_01v8_hvt ad=0p pd=0u as=0p ps=0u w=790000u l=150000u
X108 VDD NBR128half_0/sky130_fd_sc_hd__inv_16_1/Y NBR128half_0/nbrhalf_0/sky130_fd_sc_hd__inv_16_1/Y VDD sky130_fd_pr__pfet_01v8_hvt ad=0p pd=0u as=0p ps=0u w=1e+06u l=150000u
X109 a_24123_13912# a_24246_12574# a_24970_14117# VSS sky130_fd_pr__nfet_01v8 ad=0p pd=0u as=0p ps=0u w=650000u l=150000u
X110 VDD NBR128half_0/nbrhalf_1/sky130_fd_sc_hd__inv_16_3/Y a_56295_13912# VDD sky130_fd_pr__pfet_01v8_hvt ad=0p pd=0u as=0p ps=0u w=1e+06u l=150000u
X111 a_11113_518# NBR128half_bottom_0/nbrhalf_1/sky130_fd_sc_hd__inv_16_3/Y VSS VSS sky130_fd_pr__nfet_01v8 ad=0p pd=0u as=0p ps=0u w=650000u l=150000u
X112 a_26011_13912# a_26134_12574# a_26858_14117# VSS sky130_fd_pr__nfet_01v8 ad=0p pd=0u as=0p ps=0u w=650000u l=150000u
X113 a_20470_12574# C[105] VDD VDD sky130_fd_pr__pfet_01v8_hvt ad=0p pd=0u as=0p ps=0u w=1e+06u l=150000u
X114 a_1242_317# a_1733_1080# a_1673_519# VDD sky130_fd_pr__pfet_01v8_hvt ad=0p pd=0u as=0p ps=0u w=1e+06u l=150000u
X115 VSS NBR128half_0/sky130_fd_sc_hd__inv_16_1/Y NBR128half_0/nbrhalf_0/sky130_fd_sc_hd__inv_16_1/Y VSS sky130_fd_pr__nfet_01v8 ad=0p pd=0u as=0p ps=0u w=650000u l=150000u
X116 VDD NBR128half_0/sky130_fd_sc_hd__inv_16_1/Y NBR128half_0/nbrhalf_0/sky130_fd_sc_hd__inv_16_3/Y VDD sky130_fd_pr__pfet_01v8_hvt ad=0p pd=0u as=0p ps=0u w=1e+06u l=150000u
X117 VSS NBR128half_0/sky130_fd_sc_hd__inv_16_1/Y NBR128half_0/nbrhalf_3/sky130_fd_sc_hd__inv_16_1/Y VSS sky130_fd_pr__nfet_01v8 ad=0p pd=0u as=0p ps=0u w=650000u l=150000u
X118 a_33563_13912# a_32522_14117# VSS VSS sky130_fd_pr__nfet_01v8 ad=0p pd=0u as=0p ps=0u w=650000u l=150000u
X119 a_16462_6379# a_16292_6379# VSS VSS sky130_fd_pr__nfet_01v8 ad=0p pd=0u as=0p ps=0u w=520000u l=150000u
X120 a_38677_18776# a_38253_18040# VSS VSS sky130_fd_pr__nfet_01v8 ad=0p pd=0u as=0p ps=0u w=520000u l=150000u
X121 VSS NBR128half_bottom_0/nbrhalf_128_0/sky130_fd_sc_hd__inv_16_3/Y a_26240_6629# VSS sky130_fd_pr__nfet_01v8 ad=0p pd=0u as=0p ps=0u w=650000u l=150000u
X122 a_14918_5834# a_15041_6922# a_15765_5629# VSS sky130_fd_pr__nfet_01v8 ad=0p pd=0u as=0p ps=0u w=650000u l=150000u
X123 VSS a_10928_19167# a_10944_18802# VSS sky130_fd_pr__nfet_01v8 ad=0p pd=0u as=0p ps=0u w=650000u l=150000u
X124 a_27899_13912# a_28298_12574# a_28746_14117# VDD sky130_fd_pr__pfet_01v8_hvt ad=0p pd=0u as=0p ps=0u w=1e+06u l=150000u
X125 a_17651_6668# a_17199_6923# a_16800_5835# VSS sky130_fd_pr__nfet_01v8 ad=0p pd=0u as=0p ps=0u w=650000u l=150000u
X126 VSS NBR128half_bottom_0/nbrhalf_128_0/sky130_fd_sc_hd__inv_16_3/Y a_24352_5835# VSS sky130_fd_pr__nfet_01v8 ad=0p pd=0u as=0p ps=0u w=650000u l=150000u
X127 VSS a_23802_1105# a_23752_886# VSS sky130_fd_pr__nfet_01v8 ad=0p pd=0u as=0p ps=0u w=520000u l=150000u
X128 a_11117_1556# a_11157_670# a_10168_861# VDD sky130_fd_pr__pfet_01v8_hvt ad=0p pd=0u as=0p ps=0u w=1e+06u l=150000u
X129 a_10884_19299# a_11827_18584# a_11785_18860# VDD sky130_fd_pr__pfet_01v8_hvt ad=0p pd=0u as=0p ps=0u w=1e+06u l=150000u
X130 VDD NBR128half_0/sky130_fd_sc_hd__inv_16_4/Y NBR128half_0/nbrhalf_2/sky130_fd_sc_hd__inv_16_1/Y VDD sky130_fd_pr__pfet_01v8_hvt ad=0p pd=0u as=0p ps=0u w=1e+06u l=150000u
X131 a_45992_1681# NBR128half_bottom_0/nbrhalf_0/sky130_fd_sc_hd__inv_16_3/Y VDD VDD sky130_fd_pr__pfet_01v8_hvt ad=0p pd=0u as=0p ps=0u w=1e+06u l=150000u
X132 VSS NBR128half_0/sky130_fd_sc_hd__inv_16_1/Y NBR128half_0/nbrhalf_3/sky130_fd_sc_hd__inv_16_3/Y VSS sky130_fd_pr__nfet_01v8 ad=0p pd=0u as=0p ps=0u w=650000u l=150000u
X133 VSS a_23149_18584# a_22206_19299# VSS sky130_fd_pr__nfet_01v8 ad=0p pd=0u as=0p ps=0u w=650000u l=150000u
X134 NBR128half_0/nbrhalf_0/sky130_fd_sc_hd__inv_16_1/Y NBR128half_0/sky130_fd_sc_hd__inv_16_1/Y VDD VDD sky130_fd_pr__pfet_01v8_hvt ad=0p pd=0u as=0p ps=0u w=1e+06u l=150000u
X135 a_17418_14117# a_16970_12574# a_16571_13118# VSS sky130_fd_pr__nfet_01v8 ad=0p pd=0u as=0p ps=0u w=650000u l=150000u
X136 a_33563_13912# a_33962_12574# a_34410_14117# VDD sky130_fd_pr__pfet_01v8_hvt ad=0p pd=0u as=0p ps=0u w=1e+06u l=150000u
X137 sky130_fd_sc_hd__inv_8_0/Y sky130_fd_sc_hd__buf_2_0/X VSS VSS sky130_fd_pr__nfet_01v8 ad=0p pd=0u as=0p ps=0u w=650000u l=150000u
X138 NBR128half_0/nbrhalf_0/sky130_fd_sc_hd__inv_16_1/Y NBR128half_0/sky130_fd_sc_hd__inv_16_1/Y VSS VSS sky130_fd_pr__nfet_01v8 ad=0p pd=0u as=0p ps=0u w=650000u l=150000u
X139 VDD NBR128half_0/sky130_fd_sc_hd__inv_16_4/Y NBR128half_0/nbrhalf_1/sky130_fd_sc_hd__inv_16_3/Y VDD sky130_fd_pr__pfet_01v8_hvt ad=0p pd=0u as=0p ps=0u w=1e+06u l=150000u
X140 VDD a_50228_1105# a_50178_886# VDD sky130_fd_pr__pfet_01v8_hvt ad=0p pd=0u as=0p ps=0u w=790000u l=150000u
X141 a_13001_518# a_13061_1079# a_12056_1405# VSS sky130_fd_pr__nfet_01v8 ad=0p pd=0u as=0p ps=0u w=650000u l=150000u
X142 a_15603_18040# a_16602_18801# a_16546_18260# VDD sky130_fd_pr__pfet_01v8_hvt ad=0p pd=0u as=0p ps=0u w=1e+06u l=150000u
X143 a_39112_6924# a_38942_6924# VDD VDD sky130_fd_pr__pfet_01v8_hvt ad=0p pd=0u as=0p ps=0u w=790000u l=150000u
X144 a_23082_14117# a_22634_12574# a_22235_13118# VSS sky130_fd_pr__nfet_01v8 ad=0p pd=0u as=0p ps=0u w=650000u l=150000u
X145 VDD sky130_fd_sc_hd__inv_8_0/Y NBR128half_0/sky130_fd_sc_hd__inv_16_4/A VDD sky130_fd_pr__pfet_01v8_hvt ad=0p pd=0u as=0p ps=0u w=1e+06u l=150000u
X146 a_18811_6923# C[40] VSS VSS sky130_fd_pr__nfet_01v8 ad=0p pd=0u as=0p ps=0u w=650000u l=150000u
X147 NBR128half_bottom_0/nbrhalf_2/sky130_fd_sc_hd__inv_16_3/Y NBR128half_bottom_0/sky130_fd_sc_hd__inv_16_1/Y VSS VSS sky130_fd_pr__nfet_01v8 ad=0p pd=0u as=0p ps=0u w=650000u l=150000u
X148 a_25461_18776# a_25037_18040# VDD VDD sky130_fd_pr__pfet_01v8_hvt ad=0p pd=0u as=0p ps=0u w=790000u l=150000u
X149 NBR128half_0/nbrhalf_2/sky130_fd_sc_hd__inv_16_3/Y NBR128half_0/sky130_fd_sc_hd__inv_16_4/Y VSS VSS sky130_fd_pr__nfet_01v8 ad=0p pd=0u as=0p ps=0u w=650000u l=150000u
X150 a_24970_14117# a_24522_12574# a_24123_13118# VSS sky130_fd_pr__nfet_01v8 ad=0p pd=0u as=0p ps=0u w=650000u l=150000u
X151 NBR128half_0/nbrhalf_2/sky130_fd_sc_hd__inv_16_1/Y NBR128half_0/sky130_fd_sc_hd__inv_16_4/Y VDD VDD sky130_fd_pr__pfet_01v8_hvt ad=0p pd=0u as=0p ps=0u w=1e+06u l=150000u
X152 NBR128half_bottom_0/nbrhalf_128_0/sky130_fd_sc_hd__inv_16_3/A NBR128half_0/sky130_fd_sc_hd__inv_16_4/A VDD VDD sky130_fd_pr__pfet_01v8_hvt ad=0p pd=0u as=0p ps=0u w=1e+06u l=150000u
X153 NBR128half_0/nbrhalf_0/sky130_fd_sc_hd__inv_16_1/Y NBR128half_0/sky130_fd_sc_hd__inv_16_1/Y VDD VDD sky130_fd_pr__pfet_01v8_hvt ad=0p pd=0u as=0p ps=0u w=1e+06u l=150000u
X154 a_60071_13119# a_58952_13079# a_59989_13119# VDD sky130_fd_pr__pfet_01v8_hvt ad=0p pd=0u as=0p ps=0u w=1e+06u l=150000u
X155 NBR128half_0/nbrhalf_3/sky130_fd_sc_hd__inv_16_3/Y NBR128half_0/sky130_fd_sc_hd__inv_16_1/Y VSS VSS sky130_fd_pr__nfet_01v8 ad=0p pd=0u as=0p ps=0u w=650000u l=150000u
X156 a_26858_14117# a_26134_12574# a_26011_13118# VDD sky130_fd_pr__pfet_01v8_hvt ad=0p pd=0u as=0p ps=0u w=1e+06u l=150000u
X157 NBR128half_bottom_0/nbrhalf_0/sky130_fd_sc_hd__inv_16_1/Y NBR128half_bottom_0/sky130_fd_sc_hd__inv_16_1/Y VDD VDD sky130_fd_pr__pfet_01v8_hvt ad=0p pd=0u as=0p ps=0u w=1e+06u l=150000u
X158 a_31125_18775# a_30701_18040# VDD VDD sky130_fd_pr__pfet_01v8_hvt ad=0p pd=0u as=0p ps=0u w=790000u l=150000u
X159 VDD NBR128half_0/sky130_fd_sc_hd__inv_16_4/Y NBR128half_0/nbrhalf_1/sky130_fd_sc_hd__inv_16_3/Y VDD sky130_fd_pr__pfet_01v8_hvt ad=0p pd=0u as=0p ps=0u w=1e+06u l=150000u
X160 NBR128half_0/nbrhalf_3/sky130_fd_sc_hd__inv_16_1/Y NBR128half_0/sky130_fd_sc_hd__inv_16_1/Y VSS VSS sky130_fd_pr__nfet_01v8 ad=0p pd=0u as=0p ps=0u w=650000u l=150000u
X161 VDD C[65] a_56457_670# VDD sky130_fd_pr__pfet_01v8_hvt ad=0p pd=0u as=0p ps=0u w=1e+06u l=150000u
X162 NBR128half_bottom_0/nbrhalf_2/sky130_fd_sc_hd__inv_16_1/Y NBR128half_bottom_0/sky130_fd_sc_hd__inv_16_1/Y VDD VDD sky130_fd_pr__pfet_01v8_hvt ad=0p pd=0u as=0p ps=0u w=1e+06u l=150000u
X163 VDD NBR128half_bottom_0/nbrhalf_128_0/sky130_fd_sc_hd__inv_16_3/A NBR128half_bottom_0/nbrhalf_128_0/sky130_fd_sc_hd__inv_16_3/Y VDD sky130_fd_pr__pfet_01v8_hvt ad=0p pd=0u as=0p ps=0u w=1e+06u l=150000u
X164 a_56098_6380# a_55928_6380# VDD VDD sky130_fd_pr__pfet_01v8_hvt ad=0p pd=0u as=0p ps=0u w=790000u l=150000u
X165 VSS a_42029_18584# a_41086_19299# VSS sky130_fd_pr__nfet_01v8 ad=0p pd=0u as=0p ps=0u w=650000u l=150000u
X166 a_53309_18066# NBR128half_0/nbrhalf_2/sky130_fd_sc_hd__inv_16_1/Y VDD VDD sky130_fd_pr__pfet_01v8_hvt ad=0p pd=0u as=0p ps=0u w=1e+06u l=150000u
X167 VDD a_14139_19374# a_14089_19155# VDD sky130_fd_pr__pfet_01v8_hvt ad=0p pd=0u as=0p ps=0u w=790000u l=150000u
X168 VSS a_43917_18584# a_42974_19299# VSS sky130_fd_pr__nfet_01v8 ad=0p pd=0u as=0p ps=0u w=650000u l=150000u
X169 a_28813_18040# a_29818_18802# a_29762_18261# VDD sky130_fd_pr__pfet_01v8_hvt ad=0p pd=0u as=0p ps=0u w=1e+06u l=150000u
X170 NBR128half_bottom_0/nbrhalf_2/sky130_fd_sc_hd__inv_16_1/Y NBR128half_bottom_0/sky130_fd_sc_hd__inv_16_1/Y VDD VDD sky130_fd_pr__pfet_01v8_hvt ad=0p pd=0u as=0p ps=0u w=1e+06u l=150000u
X171 a_8996_19299# NBR128half_0/nbrhalf_3/sky130_fd_sc_hd__inv_16_3/Y VSS VSS sky130_fd_pr__nfet_01v8 ad=0p pd=0u as=0p ps=0u w=650000u l=150000u
X172 a_28210_6629# a_27091_6668# a_28128_6629# VDD sky130_fd_pr__pfet_01v8_hvt ad=0p pd=0u as=0p ps=0u w=1e+06u l=150000u
X173 a_35336_6924# a_35166_6924# VDD VDD sky130_fd_pr__pfet_01v8_hvt ad=0p pd=0u as=0p ps=0u w=790000u l=150000u
X174 VSS C[64] a_58345_670# VSS sky130_fd_pr__nfet_01v8 ad=0p pd=0u as=0p ps=0u w=650000u l=150000u
X175 a_14139_19374# a_13715_18584# VDD VDD sky130_fd_pr__pfet_01v8_hvt ad=0p pd=0u as=0p ps=0u w=790000u l=150000u
X176 a_37339_13118# a_36302_13079# VSS VSS sky130_fd_pr__nfet_01v8 ad=0p pd=0u as=0p ps=0u w=650000u l=150000u
X177 VSS a_57064_13079# a_57587_12573# VSS sky130_fd_pr__nfet_01v8 ad=0p pd=0u as=0p ps=0u w=520000u l=150000u
X178 a_44341_18776# a_43917_18040# VDD VDD sky130_fd_pr__pfet_01v8_hvt ad=0p pd=0u as=0p ps=0u w=790000u l=150000u
X179 VSS NBR128half_0/sky130_fd_sc_hd__inv_16_4/A NBR128half_0/sky130_fd_sc_hd__inv_16_4/Y VSS sky130_fd_pr__nfet_01v8 ad=0p pd=0u as=0p ps=0u w=650000u l=150000u
X180 a_43850_14117# a_43402_12574# a_43003_13118# VSS sky130_fd_pr__nfet_01v8 ad=0p pd=0u as=0p ps=0u w=650000u l=150000u
X181 VSS a_15769_6667# a_16292_6923# VSS sky130_fd_pr__nfet_01v8 ad=0p pd=0u as=0p ps=0u w=520000u l=150000u
X182 VSS a_44570_1105# a_44520_886# VSS sky130_fd_pr__nfet_01v8 ad=0p pd=0u as=0p ps=0u w=520000u l=150000u
X183 VSS a_3605_670# a_3621_1079# VSS sky130_fd_pr__nfet_01v8 ad=0p pd=0u as=0p ps=0u w=650000u l=150000u
X184 a_48861_518# a_48905_670# a_47916_1406# VDD sky130_fd_pr__pfet_01v8_hvt ad=0p pd=0u as=0p ps=0u w=1e+06u l=150000u
X185 NBR128half_0/nbrhalf_1/sky130_fd_sc_hd__inv_16_3/Y NBR128half_0/sky130_fd_sc_hd__inv_16_4/Y VDD VDD sky130_fd_pr__pfet_01v8_hvt ad=0p pd=0u as=0p ps=0u w=1e+06u l=150000u
X186 NBR128half_0/sky130_fd_sc_hd__inv_16_4/A sky130_fd_sc_hd__inv_8_0/Y VDD VDD sky130_fd_pr__pfet_01v8_hvt ad=0p pd=0u as=0p ps=0u w=1e+06u l=150000u
X187 a_29991_1556# a_30047_1079# a_29042_861# VSS sky130_fd_pr__nfet_01v8 ad=0p pd=0u as=0p ps=0u w=650000u l=150000u
X188 VDD NBR128half_bottom_0/nbrhalf_128_0/sky130_fd_sc_hd__inv_16_3/A NBR128half_bottom_0/nbrhalf_1/sky130_fd_sc_hd__inv_16_3/Y VDD sky130_fd_pr__pfet_01v8_hvt ad=0p pd=0u as=0p ps=0u w=1e+06u l=150000u
X189 a_6587_19374# a_6163_18584# VDD VDD sky130_fd_pr__pfet_01v8_hvt ad=0p pd=0u as=0p ps=0u w=790000u l=150000u
X190 NBR128half_0/sky130_fd_sc_hd__inv_16_1/Y NBR128half_0/sky130_fd_sc_hd__inv_16_4/A VSS VSS sky130_fd_pr__nfet_01v8 ad=0p pd=0u as=0p ps=0u w=650000u l=150000u
X191 VSS a_25266_1405# a_24327_1556# VSS sky130_fd_pr__nfet_01v8 ad=0p pd=0u as=0p ps=0u w=650000u l=150000u
X192 VDD a_31354_508# a_31304_343# VDD sky130_fd_pr__pfet_01v8_hvt ad=0p pd=0u as=0p ps=0u w=790000u l=150000u
X193 a_30659_18860# NBR128half_0/nbrhalf_3/sky130_fd_sc_hd__inv_16_1/Y VDD VDD sky130_fd_pr__pfet_01v8_hvt ad=0p pd=0u as=0p ps=0u w=1e+06u l=150000u
X194 VDD NBR128half_bottom_0/nbrhalf_128_0/sky130_fd_sc_hd__inv_16_3/A NBR128half_bottom_0/nbrhalf_1/sky130_fd_sc_hd__inv_16_1/Y VDD sky130_fd_pr__pfet_01v8_hvt ad=0p pd=0u as=0p ps=0u w=1e+06u l=150000u
X195 a_24434_6629# a_23315_6668# a_24352_6629# VDD sky130_fd_pr__pfet_01v8_hvt ad=0p pd=0u as=0p ps=0u w=1e+06u l=150000u
X196 a_27154_1405# a_28143_670# a_28103_1556# VSS sky130_fd_pr__nfet_01v8 ad=0p pd=0u as=0p ps=0u w=650000u l=150000u
X197 VSS NBR128half_bottom_0/nbrhalf_2/sky130_fd_sc_hd__inv_16_1/Y a_43232_6629# VSS sky130_fd_pr__nfet_01v8 ad=0p pd=0u as=0p ps=0u w=650000u l=150000u
X198 NBR128half_0/sky130_fd_sc_hd__inv_16_4/Y NBR128half_0/sky130_fd_sc_hd__inv_16_4/A VDD VDD sky130_fd_pr__pfet_01v8_hvt ad=0p pd=0u as=0p ps=0u w=1e+06u l=150000u
X199 a_34643_6668# a_34191_6923# a_33792_5835# VSS sky130_fd_pr__nfet_01v8 ad=0p pd=0u as=0p ps=0u w=650000u l=150000u
X200 NBR128half_bottom_0/nbrhalf_128_0/sky130_fd_sc_hd__inv_16_3/A NBR128half_0/sky130_fd_sc_hd__inv_16_4/A VDD VDD sky130_fd_pr__pfet_01v8_hvt ad=0p pd=0u as=0p ps=0u w=1e+06u l=150000u
X201 a_21891_12573# a_21721_12573# VSS VSS sky130_fd_pr__nfet_01v8 ad=0p pd=0u as=0p ps=0u w=520000u l=150000u
X202 a_7765_6923# a_7489_6923# VDD VDD sky130_fd_pr__pfet_01v8_hvt ad=0p pd=0u as=0p ps=0u w=1e+06u l=150000u
X203 VSS a_18138_507# a_18088_342# VSS sky130_fd_pr__nfet_01v8 ad=0p pd=0u as=0p ps=0u w=520000u l=150000u
X204 VSS NBR128half_bottom_0/sky130_fd_sc_hd__inv_16_1/Y NBR128half_bottom_0/nbrhalf_2/sky130_fd_sc_hd__inv_16_1/Y VSS sky130_fd_pr__nfet_01v8 ad=0p pd=0u as=0p ps=0u w=650000u l=150000u
X205 NBR128half_bottom_0/nbrhalf_2/sky130_fd_sc_hd__inv_16_1/Y NBR128half_bottom_0/sky130_fd_sc_hd__inv_16_1/Y VDD VDD sky130_fd_pr__pfet_01v8_hvt ad=0p pd=0u as=0p ps=0u w=1e+06u l=150000u
X206 a_47687_18583# a_48692_18802# a_48632_19299# VDD sky130_fd_pr__pfet_01v8_hvt ad=0p pd=0u as=0p ps=0u w=1e+06u l=150000u
X207 VSS NBR128half_0/sky130_fd_sc_hd__inv_16_4/A NBR128half_0/sky130_fd_sc_hd__inv_16_1/Y VSS sky130_fd_pr__nfet_01v8 ad=0p pd=0u as=0p ps=0u w=650000u l=150000u
X208 NBR128half_bottom_0/nbrhalf_0/sky130_fd_sc_hd__inv_16_1/Y NBR128half_bottom_0/sky130_fd_sc_hd__inv_16_1/Y VSS VSS sky130_fd_pr__nfet_01v8 ad=0p pd=0u as=0p ps=0u w=650000u l=150000u