* NGSPICE file created from BR128_flat.ext - technology: sky130A

.subckt BR128_flat OUT C[127] C[126] C[125] C[124] C[123] C[122] C[121] C[120] C[119]
+ C[118] C[117] C[116] C[115] C[114] C[113] C[112] C[111] C[110] C[109] C[108] C[107]
+ C[106] C[105] C[104] C[103] C[102] C[101] C[100] C[99] C[98] C[97] C[96] C[95] C[94]
+ C[93] C[92] C[91] C[90] C[89] C[88] C[87] C[86] C[85] C[84] C[83] C[82] C[81] C[80]
+ C[79] C[78] C[77] C[76] C[75] C[74] C[73] C[72] C[71] C[70] C[69] C[68] C[67] C[66]
+ C[65] C[64] C[63] C[62] C[61] C[60] C[59] C[58] C[57] C[56] C[55] C[54] C[53] C[52]
+ C[51] C[50] C[49] C[48] C[47] C[46] C[45] C[44] C[43] C[42] C[41] C[40] C[39] C[38]
+ C[37] C[36] C[35] C[34] C[33] C[32] C[31] C[30] C[29] C[28] C[27] C[26] C[25] C[24]
+ C[23] C[22] C[21] C[20] C[19] C[18] C[17] C[16] C[15] C[14] C[13] C[12] C[11] C[10]
+ C[9] C[8] C[7] C[6] C[5] C[4] C[3] C[2] C[1] C[0] RESET VSS VDD
X0 a_58650_6655# a_57775_5953# VDD VDD sky130_fd_pr__pfet_01v8_hvt ad=0p pd=0u as=0p ps=0u w=790000u l=150000u
X1 a_29545_1829# a_28953_690# a_27559_773# VSS sky130_fd_pr__nfet_01v8 ad=0p pd=0u as=0p ps=0u w=650000u l=150000u
X2 a_10802_n5622# a_10308_n5789# a_10363_n6843# VDD sky130_fd_pr__pfet_01v8_hvt ad=0p pd=0u as=0p ps=0u w=1e+06u l=150000u
X3 a_55834_n5879# a_55608_n5789# VSS VSS sky130_fd_pr__nfet_01v8 ad=0p pd=0u as=0p ps=0u w=650000u l=150000u
X4 a_12573_7009# a_12571_5953# a_12874_5388# VDD sky130_fd_pr__pfet_01v8_hvt ad=0p pd=0u as=0p ps=0u w=1e+06u l=150000u
X5 VDD a_36341_2600# a_31020_1932# VDD sky130_fd_pr__pfet_01v8_hvt ad=0p pd=0u as=0p ps=0u w=1e+06u l=150000u
X6 VSS a_25900_n5622# a_26825_n5795# VSS sky130_fd_pr__nfet_01v8 ad=0p pd=0u as=0p ps=0u w=520000u l=150000u
X7 a_14676_n6678# a_14310_n5879# a_12690_n5622# VDD sky130_fd_pr__pfet_01v8_hvt ad=0p pd=0u as=0p ps=0u w=1e+06u l=150000u
X8 VDD C[6] a_47717_6408# VDD sky130_fd_pr__pfet_01v8_hvt ad=0p pd=0u as=0p ps=0u w=1e+06u l=150000u
X9 a_30830_5620# a_36341_2600# VSS VSS sky130_fd_pr__nfet_01v8 ad=0p pd=0u as=0p ps=0u w=650000u l=150000u
X10 a_45928_5620# a_36341_2600# VDD VDD sky130_fd_pr__pfet_01v8_hvt ad=0p pd=0u as=0p ps=0u w=1e+06u l=150000u
X11 a_46157_n10335# a_36570_n7315# VDD VDD sky130_fd_pr__pfet_01v8_hvt ad=0p pd=0u as=0p ps=0u w=1e+06u l=150000u
X12 a_48321_773# a_49715_690# a_49765_1896# VDD sky130_fd_pr__pfet_01v8_hvt ad=0p pd=0u as=0p ps=0u w=1e+06u l=150000u
X13 VSS a_53985_773# a_54910_696# VSS sky130_fd_pr__nfet_01v8 ad=0p pd=0u as=0p ps=0u w=520000u l=150000u
X14 a_20236_n5622# a_21856_n5879# a_21680_n6611# VSS sky130_fd_pr__nfet_01v8 ad=0p pd=0u as=0p ps=0u w=650000u l=150000u
X15 a_37685_n6843# a_37326_n6678# a_37324_n5622# VDD sky130_fd_pr__pfet_01v8_hvt ad=0p pd=0u as=0p ps=0u w=1e+06u l=150000u
X16 VDD a_34341_n11370# a_34291_n11535# VDD sky130_fd_pr__pfet_01v8_hvt ad=0p pd=0u as=0p ps=0u w=790000u l=150000u
X17 VDD a_4909_773# a_5834_696# VDD sky130_fd_pr__pfet_01v8_hvt ad=0p pd=0u as=0p ps=0u w=790000u l=150000u
X18 VDD a_44283_836# a_44107_1896# VDD sky130_fd_pr__pfet_01v8_hvt ad=0p pd=0u as=0p ps=0u w=1e+06u l=150000u
X19 a_37338_n10732# a_36572_n11533# VDD VDD sky130_fd_pr__pfet_01v8_hvt ad=0p pd=0u as=0p ps=0u w=1e+06u l=150000u
X20 a_25685_5953# a_25067_6408# a_25285_6449# VSS sky130_fd_pr__nfet_01v8 ad=0p pd=0u as=0p ps=0u w=650000u l=150000u
X21 VDD a_36341_2600# a_31020_1932# VDD sky130_fd_pr__pfet_01v8_hvt ad=0p pd=0u as=0p ps=0u w=1e+06u l=150000u
X22 a_6532_n5789# C[35] VDD VDD sky130_fd_pr__pfet_01v8_hvt ad=0p pd=0u as=0p ps=0u w=1e+06u l=150000u
X23 a_22222_n6678# a_21630_n5789# VDD VDD sky130_fd_pr__pfet_01v8_hvt ad=0p pd=0u as=0p ps=0u w=1e+06u l=150000u
X24 VSS a_37228_n5622# a_38153_n5795# VSS sky130_fd_pr__nfet_01v8 ad=0p pd=0u as=0p ps=0u w=520000u l=150000u
X25 a_31059_n10335# a_36570_n7315# VDD VDD sky130_fd_pr__pfet_01v8_hvt ad=0p pd=0u as=0p ps=0u w=1e+06u l=150000u
X26 VSS a_36570_n7315# a_46157_n10335# VSS sky130_fd_pr__nfet_01v8 ad=0p pd=0u as=0p ps=0u w=650000u l=150000u
X27 VDD a_818_1932# a_776_1994# VDD sky130_fd_pr__pfet_01v8_hvt ad=0p pd=0u as=0p ps=0u w=1e+06u l=150000u
X28 a_15726_5620# a_6139_2600# VDD VDD sky130_fd_pr__pfet_01v8_hvt ad=0p pd=0u as=0p ps=0u w=1e+06u l=150000u
X29 VSS a_6139_2600# a_628_5620# VSS sky130_fd_pr__nfet_01v8 ad=0p pd=0u as=0p ps=0u w=650000u l=150000u
X30 a_2228_696# a_2058_696# VSS VSS sky130_fd_pr__nfet_01v8 ad=0p pd=0u as=0p ps=0u w=520000u l=150000u
X31 a_37641_n10237# a_31059_n10335# VDD VDD sky130_fd_pr__pfet_01v8_hvt ad=0p pd=0u as=0p ps=0u w=1e+06u l=150000u
X32 a_47908_5708# a_47935_6449# a_47920_5388# VDD sky130_fd_pr__pfet_01v8_hvt ad=0p pd=0u as=0p ps=0u w=1e+06u l=150000u
X33 VDD a_6139_2600# a_15726_5620# VDD sky130_fd_pr__pfet_01v8_hvt ad=0p pd=0u as=0p ps=0u w=1e+06u l=150000u
X34 a_20649_n10237# a_15955_n10335# VDD VDD sky130_fd_pr__pfet_01v8_hvt ad=0p pd=0u as=0p ps=0u w=1e+06u l=150000u
X35 VSS a_44780_n5622# a_45705_n5795# VSS sky130_fd_pr__nfet_01v8 ad=0p pd=0u as=0p ps=0u w=520000u l=150000u
X36 a_52193_773# a_51603_690# a_52097_773# VSS sky130_fd_pr__nfet_01v8 ad=0p pd=0u as=0p ps=0u w=650000u l=150000u
X37 a_48149_n10237# a_46157_n10335# VDD VDD sky130_fd_pr__pfet_01v8_hvt ad=0p pd=0u as=0p ps=0u w=1e+06u l=150000u
X38 a_31059_n10335# a_36570_n7315# VDD VDD sky130_fd_pr__pfet_01v8_hvt ad=0p pd=0u as=0p ps=0u w=1e+06u l=150000u
X39 a_33237_5953# a_34507_6408# a_34698_5708# VSS sky130_fd_pr__nfet_01v8 ad=0p pd=0u as=0p ps=0u w=650000u l=150000u
X40 a_818_1932# a_6139_2600# VDD VDD sky130_fd_pr__pfet_01v8_hvt ad=0p pd=0u as=0p ps=0u w=1e+06u l=150000u
X41 VSS a_54874_6655# a_54824_6436# VSS sky130_fd_pr__nfet_01v8 ad=0p pd=0u as=0p ps=0u w=520000u l=150000u
X42 a_40873_1829# a_40507_836# a_38887_773# VDD sky130_fd_pr__pfet_01v8_hvt ad=0p pd=0u as=0p ps=0u w=1e+06u l=150000u
X43 VDD a_20896_6655# a_20846_6436# VDD sky130_fd_pr__pfet_01v8_hvt ad=0p pd=0u as=0p ps=0u w=790000u l=150000u
X44 a_29461_5953# a_28791_6434# a_29061_6449# VDD sky130_fd_pr__pfet_01v8_hvt ad=0p pd=0u as=0p ps=0u w=1e+06u l=150000u
X45 VSS a_13714_3465# a_36341_2600# VSS sky130_fd_pr__nfet_01v8 ad=0p pd=0u as=0p ps=0u w=650000u l=150000u
X46 VDD a_36229_n11370# a_36179_n11535# VDD sky130_fd_pr__pfet_01v8_hvt ad=0p pd=0u as=0p ps=0u w=790000u l=150000u
X47 VDD a_39776_6655# a_39726_6436# VDD sky130_fd_pr__pfet_01v8_hvt ad=0p pd=0u as=0p ps=0u w=790000u l=150000u
X48 a_39226_n10732# a_38460_n11533# VDD VDD sky130_fd_pr__pfet_01v8_hvt ad=0p pd=0u as=0p ps=0u w=1e+06u l=150000u
X49 VDD a_2022_6655# a_1972_6436# VDD sky130_fd_pr__pfet_01v8_hvt ad=0p pd=0u as=0p ps=0u w=790000u l=150000u
X50 a_5005_773# a_4415_690# a_4909_773# VSS sky130_fd_pr__nfet_01v8 ad=0p pd=0u as=0p ps=0u w=650000u l=150000u
X51 VSS a_6139_2600# a_15916_1932# VSS sky130_fd_pr__nfet_01v8 ad=0p pd=0u as=0p ps=0u w=650000u l=150000u
X52 a_20103_773# a_19739_836# a_20007_773# VDD sky130_fd_pr__pfet_01v8_hvt ad=0p pd=0u as=0p ps=0u w=1e+06u l=150000u
X53 a_41102_n6678# a_40510_n5789# VDD VDD sky130_fd_pr__pfet_01v8_hvt ad=0p pd=0u as=0p ps=0u w=1e+06u l=150000u
X54 a_31020_1932# a_36341_2600# VSS VSS sky130_fd_pr__nfet_01v8 ad=0p pd=0u as=0p ps=0u w=650000u l=150000u
X55 a_52193_773# a_52195_1829# VSS VSS sky130_fd_pr__nfet_01v8 ad=0p pd=0u as=0p ps=0u w=650000u l=150000u
X56 VSS a_49605_6408# a_49553_6434# VSS sky130_fd_pr__nfet_01v8 ad=0p pd=0u as=0p ps=0u w=650000u l=150000u
X57 VSS a_36341_2600# a_45928_5620# VSS sky130_fd_pr__nfet_01v8 ad=0p pd=0u as=0p ps=0u w=650000u l=150000u
X58 a_32729_690# C[113] VSS VSS sky130_fd_pr__nfet_01v8 ad=0p pd=0u as=0p ps=0u w=650000u l=150000u
X59 VSS a_36341_2600# a_31020_1932# VSS sky130_fd_pr__nfet_01v8 ad=0p pd=0u as=0p ps=0u w=650000u l=150000u
X60 VDD a_51722_n11559# a_51940_n11298# VDD sky130_fd_pr__pfet_01v8_hvt ad=0p pd=0u as=0p ps=0u w=1e+06u l=150000u
X61 VDD a_36570_n7315# a_31059_n10335# VDD sky130_fd_pr__pfet_01v8_hvt ad=0p pd=0u as=0p ps=0u w=1e+06u l=150000u
X62 a_22537_n10237# a_15955_n10335# VDD VDD sky130_fd_pr__pfet_01v8_hvt ad=0p pd=0u as=0p ps=0u w=1e+06u l=150000u
X63 a_55663_n6843# a_55658_n6611# VSS VSS sky130_fd_pr__nfet_01v8 ad=0p pd=0u as=0p ps=0u w=650000u l=150000u
X64 VSS a_13714_3465# a_6139_2600# VSS sky130_fd_pr__nfet_01v8 ad=0p pd=0u as=0p ps=0u w=650000u l=150000u
X65 a_46118_1932# a_36341_2600# VDD VDD sky130_fd_pr__pfet_01v8_hvt ad=0p pd=0u as=0p ps=0u w=1e+06u l=150000u
X66 VDD a_20007_773# a_20932_696# VDD sky130_fd_pr__pfet_01v8_hvt ad=0p pd=0u as=0p ps=0u w=790000u l=150000u
X67 VDD a_36341_2600# a_30830_5620# VDD sky130_fd_pr__pfet_01v8_hvt ad=0p pd=0u as=0p ps=0u w=1e+06u l=150000u
X68 a_51829_836# a_51603_690# VSS VSS sky130_fd_pr__nfet_01v8 ad=0p pd=0u as=0p ps=0u w=650000u l=150000u
X69 a_24108_n5622# a_24110_n6678# VSS VSS sky130_fd_pr__nfet_01v8 ad=0p pd=0u as=0p ps=0u w=650000u l=150000u
X70 VDD a_31249_n6869# a_32021_n6843# VDD sky130_fd_pr__pfet_01v8_hvt ad=0p pd=0u as=0p ps=0u w=1e+06u l=150000u
X71 a_45928_5620# a_36341_2600# VSS VSS sky130_fd_pr__nfet_01v8 ad=0p pd=0u as=0p ps=0u w=650000u l=150000u
X72 VSS a_13714_3465# a_6139_2600# VSS sky130_fd_pr__nfet_01v8 ad=0p pd=0u as=0p ps=0u w=650000u l=150000u
X73 VSS a_6139_2600# a_818_1932# VSS sky130_fd_pr__nfet_01v8 ad=0p pd=0u as=0p ps=0u w=650000u l=150000u
X74 VDD a_31249_n6869# a_33909_n6843# VDD sky130_fd_pr__pfet_01v8_hvt ad=0p pd=0u as=0p ps=0u w=1e+06u l=150000u
X75 a_35524_5388# a_30830_5620# VDD VDD sky130_fd_pr__pfet_01v8_hvt ad=0p pd=0u as=0p ps=0u w=1e+06u l=150000u
X76 VDD a_21125_n11370# a_21075_n11535# VDD sky130_fd_pr__pfet_01v8_hvt ad=0p pd=0u as=0p ps=0u w=790000u l=150000u
X77 a_15726_5620# a_6139_2600# VSS VSS sky130_fd_pr__nfet_01v8 ad=0p pd=0u as=0p ps=0u w=650000u l=150000u
X78 VSS a_818_1932# a_14445_773# VSS sky130_fd_pr__nfet_01v8 ad=0p pd=0u as=0p ps=0u w=650000u l=150000u
X79 VDD a_15627_6408# a_15845_6449# VDD sky130_fd_pr__pfet_01v8_hvt ad=0p pd=0u as=0p ps=0u w=1e+06u l=150000u
X80 a_18229_5953# a_17515_6408# a_18133_5953# VDD sky130_fd_pr__pfet_01v8_hvt ad=0p pd=0u as=0p ps=0u w=1e+06u l=150000u
X81 VSS a_46347_n6869# a_50534_n5622# VSS sky130_fd_pr__nfet_01v8 ad=0p pd=0u as=0p ps=0u w=650000u l=150000u
X82 a_3133_7009# a_2417_6408# a_1147_5953# VDD sky130_fd_pr__pfet_01v8_hvt ad=0p pd=0u as=0p ps=0u w=1e+06u l=150000u
X83 a_16558_n6678# a_15966_n5789# a_14578_n5622# VSS sky130_fd_pr__nfet_01v8 ad=0p pd=0u as=0p ps=0u w=650000u l=150000u
X84 VDD a_36341_2600# a_45928_5620# VDD sky130_fd_pr__pfet_01v8_hvt ad=0p pd=0u as=0p ps=0u w=1e+06u l=150000u
X85 a_47964_1994# a_47877_1896# a_47882_1994# VDD sky130_fd_pr__pfet_01v8_hvt ad=0p pd=0u as=0p ps=0u w=1e+06u l=150000u
X86 a_14459_5953# a_13693_6434# VDD VDD sky130_fd_pr__pfet_01v8_hvt ad=0p pd=0u as=0p ps=0u w=1e+06u l=150000u
X87 VDD a_53610_n11559# a_53828_n11298# VDD sky130_fd_pr__pfet_01v8_hvt ad=0p pd=0u as=0p ps=0u w=1e+06u l=150000u
X88 a_42677_5953# a_42059_6408# a_42277_6449# VSS sky130_fd_pr__nfet_01v8 ad=0p pd=0u as=0p ps=0u w=650000u l=150000u
X89 a_628_5620# a_6139_2600# VDD VDD sky130_fd_pr__pfet_01v8_hvt ad=0p pd=0u as=0p ps=0u w=1e+06u l=150000u
X90 VDD a_6139_2600# a_15916_1932# VDD sky130_fd_pr__pfet_01v8_hvt ad=0p pd=0u as=0p ps=0u w=1e+06u l=150000u
X91 a_53985_773# a_55379_690# a_55429_1896# VDD sky130_fd_pr__pfet_01v8_hvt ad=0p pd=0u as=0p ps=0u w=1e+06u l=150000u
X92 a_14139_n6843# a_14134_n6611# VSS VSS sky130_fd_pr__nfet_01v8 ad=0p pd=0u as=0p ps=0u w=650000u l=150000u
X93 a_6368_n7315# a_13714_3465# VSS VSS sky130_fd_pr__nfet_01v8 ad=0p pd=0u as=0p ps=0u w=650000u l=150000u
X94 a_628_5620# a_6139_2600# VSS VSS sky130_fd_pr__nfet_01v8 ad=0p pd=0u as=0p ps=0u w=650000u l=150000u
X95 VSS a_6368_n7315# a_16145_n6869# VSS sky130_fd_pr__nfet_01v8 ad=0p pd=0u as=0p ps=0u w=650000u l=150000u
X96 a_31748_5388# a_30830_5620# VDD VDD sky130_fd_pr__pfet_01v8_hvt ad=0p pd=0u as=0p ps=0u w=1e+06u l=150000u
X97 VSS a_40885_5953# a_40887_7009# VSS sky130_fd_pr__nfet_01v8 ad=0p pd=0u as=0p ps=0u w=650000u l=150000u
X98 a_42988_n5622# a_42990_n6678# VSS VSS sky130_fd_pr__nfet_01v8 ad=0p pd=0u as=0p ps=0u w=650000u l=150000u
X99 VSS sky130_fd_sc_hd__inv_8_0/Y a_13714_3465# VSS sky130_fd_pr__nfet_01v8 ad=0p pd=0u as=0p ps=0u w=650000u l=150000u
X100 a_7122_n5622# a_6758_n5879# a_7026_n5622# VDD sky130_fd_pr__pfet_01v8_hvt ad=0p pd=0u as=0p ps=0u w=1e+06u l=150000u
X101 VSS a_51493_6408# a_51441_6434# VSS sky130_fd_pr__nfet_01v8 ad=0p pd=0u as=0p ps=0u w=650000u l=150000u
X102 VSS a_36341_2600# a_46118_1932# VSS sky130_fd_pr__nfet_01v8 ad=0p pd=0u as=0p ps=0u w=650000u l=150000u
X103 a_13714_3465# sky130_fd_sc_hd__inv_8_0/Y VSS VSS sky130_fd_pr__nfet_01v8 ad=0p pd=0u as=0p ps=0u w=650000u l=150000u
X104 a_9010_n5622# a_8646_n5879# a_8914_n5622# VDD sky130_fd_pr__pfet_01v8_hvt ad=0p pd=0u as=0p ps=0u w=1e+06u l=150000u
X105 a_15955_n10335# a_6368_n7315# VDD VDD sky130_fd_pr__pfet_01v8_hvt ad=0p pd=0u as=0p ps=0u w=1e+06u l=150000u
X106 a_35221_5953# a_34455_6434# a_35125_5953# VSS sky130_fd_pr__nfet_01v8 ad=0p pd=0u as=0p ps=0u w=650000u l=150000u
X107 a_4909_773# a_4641_836# a_4470_1994# VSS sky130_fd_pr__nfet_01v8 ad=0p pd=0u as=0p ps=0u w=650000u l=150000u
X108 VDD a_23013_n11370# a_22963_n11535# VDD sky130_fd_pr__pfet_01v8_hvt ad=0p pd=0u as=0p ps=0u w=790000u l=150000u
X109 VSS a_29557_5953# a_29559_7009# VSS sky130_fd_pr__nfet_01v8 ad=0p pd=0u as=0p ps=0u w=650000u l=150000u
X110 a_46118_1932# a_36341_2600# VSS VSS sky130_fd_pr__nfet_01v8 ad=0p pd=0u as=0p ps=0u w=650000u l=150000u
X111 VDD a_6139_2600# a_818_1932# VDD sky130_fd_pr__pfet_01v8_hvt ad=0p pd=0u as=0p ps=0u w=1e+06u l=150000u
X112 a_34547_n5795# a_34377_n5795# VDD VDD sky130_fd_pr__pfet_01v8_hvt ad=0p pd=0u as=0p ps=0u w=790000u l=150000u
X113 a_26010_n10732# a_25244_n11533# VDD VDD sky130_fd_pr__pfet_01v8_hvt ad=0p pd=0u as=0p ps=0u w=1e+06u l=150000u
X114 a_31059_n10335# a_36570_n7315# VDD VDD sky130_fd_pr__pfet_01v8_hvt ad=0p pd=0u as=0p ps=0u w=1e+06u l=150000u
X115 a_31564_n5622# a_31296_n5879# a_31125_n6843# VSS sky130_fd_pr__nfet_01v8 ad=0p pd=0u as=0p ps=0u w=650000u l=150000u
X116 a_15955_n10335# a_6368_n7315# VSS VSS sky130_fd_pr__nfet_01v8 ad=0p pd=0u as=0p ps=0u w=650000u l=150000u
X117 VSS a_818_1932# a_13910_1994# VSS sky130_fd_pr__nfet_01v8 ad=0p pd=0u as=0p ps=0u w=650000u l=150000u
X118 VDD a_39116_n5622# a_40041_n5795# VDD sky130_fd_pr__pfet_01v8_hvt ad=0p pd=0u as=0p ps=0u w=790000u l=150000u
X119 VDD a_41004_n5622# a_41929_n5795# VDD sky130_fd_pr__pfet_01v8_hvt ad=0p pd=0u as=0p ps=0u w=790000u l=150000u
X120 a_35438_n6678# a_34846_n5789# a_33452_n5622# VSS sky130_fd_pr__nfet_01v8 ad=0p pd=0u as=0p ps=0u w=650000u l=150000u
X121 VDD a_55498_n11559# a_55716_n11298# VDD sky130_fd_pr__pfet_01v8_hvt ad=0p pd=0u as=0p ps=0u w=1e+06u l=150000u
X122 a_39130_n10732# a_40400_n11559# a_40591_n10487# VSS sky130_fd_pr__nfet_01v8 ad=0p pd=0u as=0p ps=0u w=650000u l=150000u
X123 a_37888_6655# a_37013_5953# VSS VSS sky130_fd_pr__nfet_01v8 ad=0p pd=0u as=0p ps=0u w=520000u l=150000u
X124 a_14578_n5622# a_14084_n5789# a_14139_n6843# VDD sky130_fd_pr__pfet_01v8_hvt ad=0p pd=0u as=0p ps=0u w=1e+06u l=150000u
X125 a_1147_5953# a_2417_6408# a_2608_5708# VSS sky130_fd_pr__nfet_01v8 ad=0p pd=0u as=0p ps=0u w=650000u l=150000u
X126 VSS a_13350_6655# a_13300_6436# VSS sky130_fd_pr__nfet_01v8 ad=0p pd=0u as=0p ps=0u w=520000u l=150000u
X127 VDD a_18080_n5879# a_17904_n6611# VDD sky130_fd_pr__pfet_01v8_hvt ad=0p pd=0u as=0p ps=0u w=1e+06u l=150000u
X128 a_15955_n10335# a_6368_n7315# VDD VDD sky130_fd_pr__pfet_01v8_hvt ad=0p pd=0u as=0p ps=0u w=1e+06u l=150000u
X129 a_36570_n7315# a_13714_3465# VDD VDD sky130_fd_pr__pfet_01v8_hvt ad=0p pd=0u as=0p ps=0u w=1e+06u l=150000u
X130 VDD a_19968_n5879# a_19792_n6611# VDD sky130_fd_pr__pfet_01v8_hvt ad=0p pd=0u as=0p ps=0u w=1e+06u l=150000u
X131 a_41102_n6678# a_40510_n5789# a_39116_n5622# VSS sky130_fd_pr__nfet_01v8 ad=0p pd=0u as=0p ps=0u w=650000u l=150000u
X132 a_42990_n6678# a_42398_n5789# a_41004_n5622# VSS sky130_fd_pr__nfet_01v8 ad=0p pd=0u as=0p ps=0u w=650000u l=150000u
X133 a_11215_n10237# a_857_n10335# VDD VDD sky130_fd_pr__pfet_01v8_hvt ad=0p pd=0u as=0p ps=0u w=1e+06u l=150000u
X134 a_36570_n7315# a_13714_3465# VSS VSS sky130_fd_pr__nfet_01v8 ad=0p pd=0u as=0p ps=0u w=650000u l=150000u
X135 a_9780_696# a_9610_696# VDD VDD sky130_fd_pr__pfet_01v8_hvt ad=0p pd=0u as=0p ps=0u w=790000u l=150000u
X136 VDD a_36395_6408# a_36613_6449# VDD sky130_fd_pr__pfet_01v8_hvt ad=0p pd=0u as=0p ps=0u w=1e+06u l=150000u
X137 a_31445_5953# a_30679_6434# a_31349_5953# VSS sky130_fd_pr__nfet_01v8 ad=0p pd=0u as=0p ps=0u w=650000u l=150000u
X138 a_12573_7009# a_628_5620# VSS VSS sky130_fd_pr__nfet_01v8 ad=0p pd=0u as=0p ps=0u w=650000u l=150000u
X139 VDD a_36570_n7315# a_31059_n10335# VDD sky130_fd_pr__pfet_01v8_hvt ad=0p pd=0u as=0p ps=0u w=1e+06u l=150000u
X140 a_1047_n6869# a_6368_n7315# VSS VSS sky130_fd_pr__nfet_01v8 ad=0p pd=0u as=0p ps=0u w=650000u l=150000u
X141 a_43758_696# a_43588_696# VSS VSS sky130_fd_pr__nfet_01v8 ad=0p pd=0u as=0p ps=0u w=520000u l=150000u
X142 a_7026_n5622# a_6532_n5789# a_6587_n6843# VDD sky130_fd_pr__pfet_01v8_hvt ad=0p pd=0u as=0p ps=0u w=1e+06u l=150000u
X143 VSS a_6368_n7315# a_15955_n10335# VSS sky130_fd_pr__nfet_01v8 ad=0p pd=0u as=0p ps=0u w=650000u l=150000u
X144 a_7210_5388# a_628_5620# VDD VDD sky130_fd_pr__pfet_01v8_hvt ad=0p pd=0u as=0p ps=0u w=1e+06u l=150000u
X145 a_10669_773# a_10671_1829# VSS VSS sky130_fd_pr__nfet_01v8 ad=0p pd=0u as=0p ps=0u w=650000u l=150000u
X146 a_52783_n6843# a_52424_n6678# a_52422_n5622# VDD sky130_fd_pr__pfet_01v8_hvt ad=0p pd=0u as=0p ps=0u w=1e+06u l=150000u
X147 a_3035_5953# a_4253_6434# a_4496_5708# VDD sky130_fd_pr__pfet_01v8_hvt ad=0p pd=0u as=0p ps=0u w=1e+06u l=150000u
X148 a_8191_690# C[100] VSS VSS sky130_fd_pr__nfet_01v8 ad=0p pd=0u as=0p ps=0u w=650000u l=150000u
X149 a_27898_n10732# a_27132_n11533# VDD VDD sky130_fd_pr__pfet_01v8_hvt ad=0p pd=0u as=0p ps=0u w=1e+06u l=150000u
X150 a_13579_n11370# a_12704_n10732# VSS VSS sky130_fd_pr__nfet_01v8 ad=0p pd=0u as=0p ps=0u w=520000u l=150000u
X151 VDD a_6139_2600# a_15726_5620# VDD sky130_fd_pr__pfet_01v8_hvt ad=0p pd=0u as=0p ps=0u w=1e+06u l=150000u
X152 a_46157_n10335# a_36570_n7315# VDD VDD sky130_fd_pr__pfet_01v8_hvt ad=0p pd=0u as=0p ps=0u w=1e+06u l=150000u
X153 VDD a_9969_6408# a_9917_6434# VDD sky130_fd_pr__pfet_01v8_hvt ad=0p pd=0u as=0p ps=0u w=1e+06u l=150000u
X154 a_37111_7009# a_37109_5953# a_37412_5388# VDD sky130_fd_pr__pfet_01v8_hvt ad=0p pd=0u as=0p ps=0u w=1e+06u l=150000u
X155 a_818_1932# a_6139_2600# VSS VSS sky130_fd_pr__nfet_01v8 ad=0p pd=0u as=0p ps=0u w=650000u l=150000u
X156 VSS a_52326_n5622# a_53251_n5795# VSS sky130_fd_pr__nfet_01v8 ad=0p pd=0u as=0p ps=0u w=520000u l=150000u
X157 VSS a_6368_n7315# a_857_n10335# VSS sky130_fd_pr__nfet_01v8 ad=0p pd=0u as=0p ps=0u w=650000u l=150000u
X158 VDD a_13714_3465# a_36570_n7315# VDD sky130_fd_pr__pfet_01v8_hvt ad=0p pd=0u as=0p ps=0u w=1e+06u l=150000u
X159 VSS a_13714_3465# a_6368_n7315# VSS sky130_fd_pr__nfet_01v8 ad=0p pd=0u as=0p ps=0u w=650000u l=150000u
X160 a_30830_5620# a_36341_2600# VDD VDD sky130_fd_pr__pfet_01v8_hvt ad=0p pd=0u as=0p ps=0u w=1e+06u l=150000u
X161 a_18348_n5622# a_19742_n5789# a_19792_n6611# VDD sky130_fd_pr__pfet_01v8_hvt ad=0p pd=0u as=0p ps=0u w=1e+06u l=150000u
X162 VDD a_57386_n11559# a_57604_n11298# VDD sky130_fd_pr__pfet_01v8_hvt ad=0p pd=0u as=0p ps=0u w=1e+06u l=150000u
X163 VSS a_6139_2600# a_15726_5620# VSS sky130_fd_pr__nfet_01v8 ad=0p pd=0u as=0p ps=0u w=650000u l=150000u
X164 VSS C[18] a_25067_6408# VSS sky130_fd_pr__nfet_01v8 ad=0p pd=0u as=0p ps=0u w=650000u l=150000u
X165 VSS a_29447_773# a_30372_696# VSS sky130_fd_pr__nfet_01v8 ad=0p pd=0u as=0p ps=0u w=520000u l=150000u
X166 a_33550_n6678# a_32958_n5789# VDD VDD sky130_fd_pr__pfet_01v8_hvt ad=0p pd=0u as=0p ps=0u w=1e+06u l=150000u
X167 VSS a_6368_n7315# a_1047_n6869# VSS sky130_fd_pr__nfet_01v8 ad=0p pd=0u as=0p ps=0u w=650000u l=150000u
X168 a_35221_5953# a_34507_6408# a_35125_5953# VDD sky130_fd_pr__pfet_01v8_hvt ad=0p pd=0u as=0p ps=0u w=1e+06u l=150000u
X169 VDD a_38848_n5879# a_38672_n6611# VDD sky130_fd_pr__pfet_01v8_hvt ad=0p pd=0u as=0p ps=0u w=1e+06u l=150000u
X170 VDD a_46347_n6869# a_48193_n6843# VDD sky130_fd_pr__pfet_01v8_hvt ad=0p pd=0u as=0p ps=0u w=1e+06u l=150000u
X171 a_6368_n7315# a_13714_3465# VDD VDD sky130_fd_pr__pfet_01v8_hvt ad=0p pd=0u as=0p ps=0u w=1e+06u l=150000u
X172 VSS a_31445_5953# a_31447_7009# VSS sky130_fd_pr__nfet_01v8 ad=0p pd=0u as=0p ps=0u w=650000u l=150000u
X173 VSS a_59878_n5622# a_60803_n5795# VSS sky130_fd_pr__nfet_01v8 ad=0p pd=0u as=0p ps=0u w=520000u l=150000u
X174 a_13103_n10237# a_857_n10335# VDD VDD sky130_fd_pr__pfet_01v8_hvt ad=0p pd=0u as=0p ps=0u w=1e+06u l=150000u
X175 VDD a_6368_n7315# a_16145_n6869# VDD sky130_fd_pr__pfet_01v8_hvt ad=0p pd=0u as=0p ps=0u w=1e+06u l=150000u
X176 a_6139_2600# a_13714_3465# VDD VDD sky130_fd_pr__pfet_01v8_hvt ad=0p pd=0u as=0p ps=0u w=1e+06u l=150000u
X177 a_31059_n10335# a_36570_n7315# VSS VSS sky130_fd_pr__nfet_01v8 ad=0p pd=0u as=0p ps=0u w=650000u l=150000u
X178 a_29559_7009# a_28791_6434# a_27573_5953# VSS sky130_fd_pr__nfet_01v8 ad=0p pd=0u as=0p ps=0u w=650000u l=150000u
X179 a_3434_5388# a_628_5620# VDD VDD sky130_fd_pr__pfet_01v8_hvt ad=0p pd=0u as=0p ps=0u w=1e+06u l=150000u
X180 a_15916_1932# a_6139_2600# VDD VDD sky130_fd_pr__pfet_01v8_hvt ad=0p pd=0u as=0p ps=0u w=1e+06u l=150000u
X181 a_17625_690# C[105] VDD VDD sky130_fd_pr__pfet_01v8_hvt ad=0p pd=0u as=0p ps=0u w=1e+06u l=150000u
X182 VDD sky130_fd_sc_hd__inv_8_0/Y a_13714_3465# VDD sky130_fd_pr__pfet_01v8_hvt ad=0p pd=0u as=0p ps=0u w=1e+06u l=150000u
X183 a_13714_3465# sky130_fd_sc_hd__inv_8_0/Y VDD VDD sky130_fd_pr__pfet_01v8_hvt ad=0p pd=0u as=0p ps=0u w=1e+06u l=150000u
X184 a_12048_5708# a_628_5620# VSS VSS sky130_fd_pr__nfet_01v8 ad=0p pd=0u as=0p ps=0u w=650000u l=150000u
X185 a_15916_1932# a_6139_2600# VSS VSS sky130_fd_pr__nfet_01v8 ad=0p pd=0u as=0p ps=0u w=650000u l=150000u
X186 VDD a_16145_n6869# a_18805_n6843# VDD sky130_fd_pr__pfet_01v8_hvt ad=0p pd=0u as=0p ps=0u w=1e+06u l=150000u
X187 VDD a_36570_n7315# a_46157_n10335# VDD sky130_fd_pr__pfet_01v8_hvt ad=0p pd=0u as=0p ps=0u w=1e+06u l=150000u
X188 a_42775_7009# a_42059_6408# a_40789_5953# VDD sky130_fd_pr__pfet_01v8_hvt ad=0p pd=0u as=0p ps=0u w=1e+06u l=150000u
X189 a_857_n10335# a_6368_n7315# VSS VSS sky130_fd_pr__nfet_01v8 ad=0p pd=0u as=0p ps=0u w=650000u l=150000u
X190 a_6368_n7315# a_13714_3465# VSS VSS sky130_fd_pr__nfet_01v8 ad=0p pd=0u as=0p ps=0u w=650000u l=150000u
X191 VDD a_46347_n6869# a_55745_n6843# VDD sky130_fd_pr__pfet_01v8_hvt ad=0p pd=0u as=0p ps=0u w=1e+06u l=150000u
X192 VSS a_36341_2600# a_31020_1932# VSS sky130_fd_pr__nfet_01v8 ad=0p pd=0u as=0p ps=0u w=650000u l=150000u
X193 VSS a_27327_n2870# sky130_fd_sc_hd__buf_2_0/X VSS sky130_fd_pr__nfet_01v8 ad=0p pd=0u as=0p ps=0u w=650000u l=150000u
X194 a_18444_n5622# a_17854_n5789# a_18348_n5622# VSS sky130_fd_pr__nfet_01v8 ad=0p pd=0u as=0p ps=0u w=650000u l=150000u
X195 a_37013_5953# a_36343_6434# a_36613_6449# VDD sky130_fd_pr__pfet_01v8_hvt ad=0p pd=0u as=0p ps=0u w=1e+06u l=150000u
X196 a_45928_5620# a_36341_2600# VSS VSS sky130_fd_pr__nfet_01v8 ad=0p pd=0u as=0p ps=0u w=650000u l=150000u
X197 VSS a_13714_3465# a_6139_2600# VSS sky130_fd_pr__nfet_01v8 ad=0p pd=0u as=0p ps=0u w=650000u l=150000u
X198 a_12461_773# a_13855_690# a_13905_1896# VDD sky130_fd_pr__pfet_01v8_hvt ad=0p pd=0u as=0p ps=0u w=1e+06u l=150000u
X199 VSS a_15916_1932# a_18215_773# VSS sky130_fd_pr__nfet_01v8 ad=0p pd=0u as=0p ps=0u w=650000u l=150000u
X200 VDD a_59274_n11559# a_59492_n11298# VDD sky130_fd_pr__pfet_01v8_hvt ad=0p pd=0u as=0p ps=0u w=1e+06u l=150000u
X201 a_18229_5953# a_17463_6434# VDD VDD sky130_fd_pr__pfet_01v8_hvt ad=0p pd=0u as=0p ps=0u w=1e+06u l=150000u
X202 a_9574_6655# a_8699_5953# VSS VSS sky130_fd_pr__nfet_01v8 ad=0p pd=0u as=0p ps=0u w=520000u l=150000u
X203 a_46447_5953# a_45829_6408# a_46047_6449# VSS sky130_fd_pr__nfet_01v8 ad=0p pd=0u as=0p ps=0u w=650000u l=150000u
X204 a_24108_n5622# a_23518_n5789# a_24012_n5622# VSS sky130_fd_pr__nfet_01v8 ad=0p pd=0u as=0p ps=0u w=650000u l=150000u
X205 a_25996_n5622# a_25406_n5789# a_25900_n5622# VSS sky130_fd_pr__nfet_01v8 ad=0p pd=0u as=0p ps=0u w=650000u l=150000u
X206 a_1474_n11788# a_706_n11533# a_453_n11561# VSS sky130_fd_pr__nfet_01v8 ad=0p pd=0u as=0p ps=0u w=650000u l=150000u
X207 VDD a_36570_n7315# a_46157_n10335# VDD sky130_fd_pr__pfet_01v8_hvt ad=0p pd=0u as=0p ps=0u w=1e+06u l=150000u
X208 VSS a_36570_n7315# a_31059_n10335# VSS sky130_fd_pr__nfet_01v8 ad=0p pd=0u as=0p ps=0u w=650000u l=150000u
X209 VSS a_52097_773# a_53022_696# VSS sky130_fd_pr__nfet_01v8 ad=0p pd=0u as=0p ps=0u w=520000u l=150000u
X210 OUT a_60574_696# VDD VDD sky130_fd_pr__pfet_01v8_hvt ad=0p pd=0u as=0p ps=0u w=790000u l=150000u
X211 a_818_1932# a_6139_2600# VDD VDD sky130_fd_pr__pfet_01v8_hvt ad=0p pd=0u as=0p ps=0u w=1e+06u l=150000u
X212 a_13785_n5795# a_13615_n5795# VSS VSS sky130_fd_pr__nfet_01v8 ad=0p pd=0u as=0p ps=0u w=520000u l=150000u
X213 VSS a_16145_n6869# a_17909_n6843# VSS sky130_fd_pr__nfet_01v8 ad=0p pd=0u as=0p ps=0u w=650000u l=150000u
X214 VSS a_16145_n6869# a_19797_n6843# VSS sky130_fd_pr__nfet_01v8 ad=0p pd=0u as=0p ps=0u w=650000u l=150000u
X215 a_22005_5953# a_21239_6434# a_21909_5953# VSS sky130_fd_pr__nfet_01v8 ad=0p pd=0u as=0p ps=0u w=650000u l=150000u
X216 a_3131_5953# a_2365_6434# a_3035_5953# VSS sky130_fd_pr__nfet_01v8 ad=0p pd=0u as=0p ps=0u w=650000u l=150000u
X217 a_1047_n6869# a_6368_n7315# VDD VDD sky130_fd_pr__pfet_01v8_hvt ad=0p pd=0u as=0p ps=0u w=1e+06u l=150000u
X218 VDD a_18348_n5622# a_19273_n5795# VDD sky130_fd_pr__pfet_01v8_hvt ad=0p pd=0u as=0p ps=0u w=790000u l=150000u
X219 VDD a_32848_n11559# a_32796_n11533# VDD sky130_fd_pr__pfet_01v8_hvt ad=0p pd=0u as=0p ps=0u w=1e+06u l=150000u
X220 VDD a_31249_n6869# a_37685_n6843# VDD sky130_fd_pr__pfet_01v8_hvt ad=0p pd=0u as=0p ps=0u w=1e+06u l=150000u
X221 VDD a_36341_2600# a_45928_5620# VDD sky130_fd_pr__pfet_01v8_hvt ad=0p pd=0u as=0p ps=0u w=1e+06u l=150000u
X222 VSS a_16145_n6869# a_25461_n6843# VSS sky130_fd_pr__nfet_01v8 ad=0p pd=0u as=0p ps=0u w=650000u l=150000u
X223 VSS a_19621_6449# a_19594_5708# VSS sky130_fd_pr__nfet_01v8 ad=0p pd=0u as=0p ps=0u w=650000u l=150000u
X224 VDD a_13714_3465# a_36341_2600# VDD sky130_fd_pr__pfet_01v8_hvt ad=0p pd=0u as=0p ps=0u w=1e+06u l=150000u
X225 a_37324_n5622# a_36734_n5789# a_37228_n5622# VSS sky130_fd_pr__nfet_01v8 ad=0p pd=0u as=0p ps=0u w=650000u l=150000u
X226 a_7439_n10237# a_857_n10335# VDD VDD sky130_fd_pr__pfet_01v8_hvt ad=0p pd=0u as=0p ps=0u w=1e+06u l=150000u
X227 a_37456_1994# a_37097_1829# a_37095_773# VDD sky130_fd_pr__pfet_01v8_hvt ad=0p pd=0u as=0p ps=0u w=1e+06u l=150000u
X228 VDD a_46118_1932# a_51740_1994# VDD sky130_fd_pr__pfet_01v8_hvt ad=0p pd=0u as=0p ps=0u w=1e+06u l=150000u
X229 a_16460_n5622# a_16192_n5879# a_16021_n6843# VSS sky130_fd_pr__nfet_01v8 ad=0p pd=0u as=0p ps=0u w=650000u l=150000u
X230 a_1047_n6869# a_6368_n7315# VSS VSS sky130_fd_pr__nfet_01v8 ad=0p pd=0u as=0p ps=0u w=650000u l=150000u
X231 a_52986_6655# a_52111_5953# VSS VSS sky130_fd_pr__nfet_01v8 ad=0p pd=0u as=0p ps=0u w=520000u l=150000u
X232 VDD a_25900_n5622# a_26825_n5795# VDD sky130_fd_pr__pfet_01v8_hvt ad=0p pd=0u as=0p ps=0u w=790000u l=150000u
X233 VDD a_13714_3465# a_6368_n7315# VDD sky130_fd_pr__pfet_01v8_hvt ad=0p pd=0u as=0p ps=0u w=1e+06u l=150000u
X234 a_8797_7009# a_8795_5953# a_9098_5388# VDD sky130_fd_pr__pfet_01v8_hvt ad=0p pd=0u as=0p ps=0u w=1e+06u l=150000u
X235 a_25270_5388# a_15726_5620# VDD VDD sky130_fd_pr__pfet_01v8_hvt ad=0p pd=0u as=0p ps=0u w=1e+06u l=150000u
X236 VSS a_13714_3465# a_36341_2600# VSS sky130_fd_pr__nfet_01v8 ad=0p pd=0u as=0p ps=0u w=650000u l=150000u
X237 a_4923_5953# a_4305_6408# a_4523_6449# VSS sky130_fd_pr__nfet_01v8 ad=0p pd=0u as=0p ps=0u w=650000u l=150000u
X238 a_25781_5953# a_25067_6408# a_25685_5953# VDD sky130_fd_pr__pfet_01v8_hvt ad=0p pd=0u as=0p ps=0u w=1e+06u l=150000u
X239 a_52195_1829# a_51603_690# a_50209_773# VSS sky130_fd_pr__nfet_01v8 ad=0p pd=0u as=0p ps=0u w=650000u l=150000u
X240 a_44876_n5622# a_44286_n5789# a_44780_n5622# VSS sky130_fd_pr__nfet_01v8 ad=0p pd=0u as=0p ps=0u w=650000u l=150000u
X241 a_3362_n11788# a_2594_n11533# a_1376_n10732# VSS sky130_fd_pr__nfet_01v8 ad=0p pd=0u as=0p ps=0u w=650000u l=150000u
X242 VDD a_6368_n7315# a_1047_n6869# VDD sky130_fd_pr__pfet_01v8_hvt ad=0p pd=0u as=0p ps=0u w=1e+06u l=150000u
X243 VSS a_17120_6655# a_17070_6436# VSS sky130_fd_pr__nfet_01v8 ad=0p pd=0u as=0p ps=0u w=520000u l=150000u
X244 a_24012_n5622# a_23744_n5879# a_23573_n6843# VSS sky130_fd_pr__nfet_01v8 ad=0p pd=0u as=0p ps=0u w=650000u l=150000u
X245 a_31660_n5622# a_31296_n5879# a_31564_n5622# VDD sky130_fd_pr__pfet_01v8_hvt ad=0p pd=0u as=0p ps=0u w=1e+06u l=150000u
X246 VSS a_31249_n6869# a_38677_n6843# VSS sky130_fd_pr__nfet_01v8 ad=0p pd=0u as=0p ps=0u w=650000u l=150000u
X247 VSS a_6368_n7315# a_857_n10335# VSS sky130_fd_pr__nfet_01v8 ad=0p pd=0u as=0p ps=0u w=650000u l=150000u
X248 VDD C[24] a_13745_6408# VDD sky130_fd_pr__pfet_01v8_hvt ad=0p pd=0u as=0p ps=0u w=1e+06u l=150000u
X249 a_55887_5953# a_57105_6434# a_57348_5708# VDD sky130_fd_pr__pfet_01v8_hvt ad=0p pd=0u as=0p ps=0u w=1e+06u l=150000u
X250 VDD a_6027_n11370# a_5977_n11535# VDD sky130_fd_pr__pfet_01v8_hvt ad=0p pd=0u as=0p ps=0u w=790000u l=150000u
X251 a_46118_1932# a_36341_2600# VSS VSS sky130_fd_pr__nfet_01v8 ad=0p pd=0u as=0p ps=0u w=650000u l=150000u
X252 a_1047_n6869# a_6368_n7315# VSS VSS sky130_fd_pr__nfet_01v8 ad=0p pd=0u as=0p ps=0u w=650000u l=150000u
X253 VSS C[9] a_42059_6408# VSS sky130_fd_pr__nfet_01v8 ad=0p pd=0u as=0p ps=0u w=650000u l=150000u
X254 a_16343_7009# a_15726_5620# VSS VSS sky130_fd_pr__nfet_01v8 ad=0p pd=0u as=0p ps=0u w=650000u l=150000u
X255 VDD a_37228_n5622# a_38153_n5795# VDD sky130_fd_pr__pfet_01v8_hvt ad=0p pd=0u as=0p ps=0u w=790000u l=150000u
X256 VDD a_34736_n11559# a_34684_n11533# VDD sky130_fd_pr__pfet_01v8_hvt ad=0p pd=0u as=0p ps=0u w=1e+06u l=150000u