* NGSPICE file created from BR64_flat.ext - technology: sky130A

.subckt BR64_flat OUT C[63] C[62] C[61] C[60] C[59] C[58] C[57] C[56] C[55] C[54]
+ C[53] C[52] C[51] C[50] C[49] C[48] C[47] C[46] C[45] C[44] C[43] C[42] C[41] C[40]
+ C[39] C[38] C[37] C[36] C[35] C[34] C[33] C[32] C[31] C[30] C[29] C[28] C[27] C[26]
+ C[25] C[24] C[23] C[22] C[21] C[20] C[19] C[18] C[17] C[16] C[15] C[14] C[13] C[12]
+ C[11] C[10] C[9] C[8] C[7] C[6] C[5] C[4] C[3] C[2] C[1] C[0] RESET VDD VSS
X0 VSS a_10234_5882# a_10236_6938# VSS sky130_fd_pr__nfet_01v8 ad=1.07957e+14p pd=1.15496e+09u as=3.77e+11p ps=3.76e+06u w=650000u l=150000u
X1 a_30381_5549# a_35892_2529# VSS VSS sky130_fd_pr__nfet_01v8 ad=2.808e+12p pd=2.944e+07u as=0p ps=0u w=650000u l=150000u
X2 a_2668_702# a_2078_619# a_2572_702# VSS sky130_fd_pr__nfet_01v8 ad=3.77e+11p pd=3.76e+06u as=4.29e+11p ps=3.92e+06u w=650000u l=150000u
X3 a_15467_1861# a_5690_2529# VDD VDD sky130_fd_pr__pfet_01v8_hvt ad=4.32e+12p pd=4.064e+07u as=1.69742e+14p ps=1.6004e+09u w=1e+06u l=150000u
X4 a_30381_5549# a_35892_2529# VDD VDD sky130_fd_pr__pfet_01v8_hvt ad=4.32e+12p pd=4.064e+07u as=0p ps=0u w=1e+06u l=150000u
X5 a_14313_5317# a_179_5549# VDD VDD sky130_fd_pr__pfet_01v8_hvt ad=2.1e+11p pd=2.42e+06u as=0p ps=0u w=1e+06u l=150000u
X6 a_2668_702# a_2304_765# a_2572_702# VDD sky130_fd_pr__pfet_01v8_hvt ad=5.7e+11p pd=5.14e+06u as=6.6e+11p ps=5.32e+06u w=1e+06u l=150000u
X7 a_27110_702# a_28504_619# a_28554_1825# VDD sky130_fd_pr__pfet_01v8_hvt ad=6.6e+11p pd=5.32e+06u as=6e+11p ps=5.2e+06u w=1e+06u l=150000u
X8 VDD a_684_702# a_1609_625# VDD sky130_fd_pr__pfet_01v8_hvt ad=0p pd=0u as=2.054e+11p ps=2.1e+06u w=790000u l=150000u
X9 VDD a_35892_2529# a_30571_1861# VDD sky130_fd_pr__pfet_01v8_hvt ad=0p pd=0u as=4.32e+12p ps=4.064e+07u w=1e+06u l=150000u
X10 a_26753_1923# a_26666_1825# a_26671_1923# VDD sky130_fd_pr__pfet_01v8_hvt ad=2.1e+11p pd=2.42e+06u as=5.7e+11p ps=5.14e+06u w=1e+06u l=150000u
X11 VSS a_35892_2529# a_30381_5549# VSS sky130_fd_pr__nfet_01v8 ad=0p pd=0u as=0p ps=0u w=650000u l=150000u
X12 VSS a_45669_1861# a_59296_702# VSS sky130_fd_pr__nfet_01v8 ad=0p pd=0u as=3.77e+11p ps=3.76e+06u w=650000u l=150000u
X13 VSS a_5690_2529# a_179_5549# VSS sky130_fd_pr__nfet_01v8 ad=0p pd=0u as=2.808e+12p ps=2.944e+07u w=650000u l=150000u
X14 a_30571_1861# a_35892_2529# VDD VDD sky130_fd_pr__pfet_01v8_hvt ad=0p pd=0u as=0p ps=0u w=1e+06u l=150000u
X15 a_59310_5882# a_58544_6363# VDD VDD sky130_fd_pr__pfet_01v8_hvt ad=6e+11p pd=5.2e+06u as=0p ps=0u w=1e+06u l=150000u
X16 a_369_1861# a_5690_2529# VDD VDD sky130_fd_pr__pfet_01v8_hvt ad=4.32e+12p pd=4.064e+07u as=0p ps=0u w=1e+06u l=150000u
X17 a_35892_2529# a_13265_3394# VDD VDD sky130_fd_pr__pfet_01v8_hvt ad=4.32e+12p pd=4.064e+07u as=0p ps=0u w=1e+06u l=150000u
X18 VSS a_5349_6584# a_5299_6365# VSS sky130_fd_pr__nfet_01v8 ad=0p pd=0u as=1.352e+11p ps=1.56e+06u w=520000u l=150000u
X19 a_10537_5317# a_179_5549# VDD VDD sky130_fd_pr__pfet_01v8_hvt ad=2.1e+11p pd=2.42e+06u as=0p ps=0u w=1e+06u l=150000u
X20 a_43689_5637# a_43716_6378# a_43701_5317# VDD sky130_fd_pr__pfet_01v8_hvt ad=5.7e+11p pd=5.14e+06u as=2.1e+11p ps=2.42e+06u w=1e+06u l=150000u
X21 VSS a_5690_2529# a_15467_1861# VSS sky130_fd_pr__nfet_01v8 ad=0p pd=0u as=2.808e+12p ps=2.944e+07u w=650000u l=150000u
X22 a_35892_2529# a_13265_3394# VDD VDD sky130_fd_pr__pfet_01v8_hvt ad=0p pd=0u as=0p ps=0u w=1e+06u l=150000u
X23 VDD a_13265_3394# a_5690_2529# VDD sky130_fd_pr__pfet_01v8_hvt ad=0p pd=0u as=4.32e+12p ps=4.064e+07u w=1e+06u l=150000u
X24 a_10222_1758# a_9630_619# VDD VDD sky130_fd_pr__pfet_01v8_hvt ad=6e+11p pd=5.2e+06u as=0p ps=0u w=1e+06u l=150000u
X25 VDD a_45669_1861# a_53993_1923# VDD sky130_fd_pr__pfet_01v8_hvt ad=0p pd=0u as=2.1e+11p ps=2.42e+06u w=1e+06u l=150000u
X26 a_30571_1861# a_35892_2529# VSS VSS sky130_fd_pr__nfet_01v8 ad=2.808e+12p pd=2.944e+07u as=0p ps=0u w=650000u l=150000u
X27 VSS a_20842_6337# a_20790_6363# VSS sky130_fd_pr__nfet_01v8 ad=0p pd=0u as=1.69e+11p ps=1.82e+06u w=650000u l=150000u
X28 a_42310_702# a_42312_1758# VSS VSS sky130_fd_pr__nfet_01v8 ad=3.77e+11p pd=3.76e+06u as=0p ps=0u w=650000u l=150000u
X29 a_n225_6339# a_190_619# a_240_1825# VDD sky130_fd_pr__pfet_01v8_hvt ad=6.6e+11p pd=5.32e+06u as=6e+11p ps=5.2e+06u w=1e+06u l=150000u
X30 VSS a_39722_6337# a_39670_6363# VSS sky130_fd_pr__nfet_01v8 ad=0p pd=0u as=1.69e+11p ps=1.82e+06u w=650000u l=150000u
X31 VDD a_38438_702# a_39363_625# VDD sky130_fd_pr__pfet_01v8_hvt ad=0p pd=0u as=2.054e+11p ps=2.1e+06u w=790000u l=150000u
X32 a_57769_1923# a_57410_1758# a_57408_702# VDD sky130_fd_pr__pfet_01v8_hvt ad=2.1e+11p pd=2.42e+06u as=5.7e+11p ps=5.14e+06u w=1e+06u l=150000u
X33 a_19558_702# a_21178_765# a_21002_1825# VSS sky130_fd_pr__nfet_01v8 ad=4.29e+11p pd=3.92e+06u as=2.015e+11p ps=1.92e+06u w=650000u l=150000u
X34 a_45583_5317# a_45479_5549# VDD VDD sky130_fd_pr__pfet_01v8_hvt ad=2.1e+11p pd=2.42e+06u as=0p ps=0u w=1e+06u l=150000u
X35 a_15343_1923# a_15338_1825# VSS VSS sky130_fd_pr__nfet_01v8 ad=3.77e+11p pd=3.76e+06u as=0p ps=0u w=650000u l=150000u
X36 a_45669_1861# a_35892_2529# VDD VDD sky130_fd_pr__pfet_01v8_hvt ad=4.32e+12p pd=4.064e+07u as=0p ps=0u w=1e+06u l=150000u
X37 VSS a_5690_2529# a_369_1861# VSS sky130_fd_pr__nfet_01v8 ad=0p pd=0u as=2.808e+12p ps=2.944e+07u w=650000u l=150000u
X38 VDD a_24223_6584# a_24173_6365# VDD sky130_fd_pr__pfet_01v8_hvt ad=0p pd=0u as=2.054e+11p ps=2.1e+06u w=790000u l=150000u
X39 a_2572_702# a_2304_765# a_2133_1923# VSS sky130_fd_pr__nfet_01v8 ad=0p pd=0u as=3.77e+11p ps=3.76e+06u w=650000u l=150000u
X40 VSS a_13265_3394# a_5690_2529# VSS sky130_fd_pr__nfet_01v8 ad=0p pd=0u as=2.808e+12p ps=2.944e+07u w=650000u l=150000u
X41 a_43689_5637# a_30381_5549# VSS VSS sky130_fd_pr__nfet_01v8 ad=3.77e+11p pd=3.76e+06u as=0p ps=0u w=650000u l=150000u
X42 a_32872_1758# a_32280_619# VDD VDD sky130_fd_pr__pfet_01v8_hvt ad=6e+11p pd=5.2e+06u as=0p ps=0u w=1e+06u l=150000u
X43 a_15277_5549# a_5690_2529# VDD VDD sky130_fd_pr__pfet_01v8_hvt ad=4.32e+12p pd=4.064e+07u as=0p ps=0u w=1e+06u l=150000u
X44 VDD a_30571_1861# a_39969_1923# VDD sky130_fd_pr__pfet_01v8_hvt ad=0p pd=0u as=2.1e+11p ps=2.42e+06u w=1e+06u l=150000u
X45 a_21558_6938# a_20790_6363# a_19572_5882# VSS sky130_fd_pr__nfet_01v8 ad=3.77e+11p pd=3.76e+06u as=4.29e+11p ps=3.92e+06u w=650000u l=150000u
X46 a_29110_6938# a_28394_6337# a_27124_5882# VDD sky130_fd_pr__pfet_01v8_hvt ad=5.7e+11p pd=5.14e+06u as=6.6e+11p ps=5.32e+06u w=1e+06u l=150000u
X47 VDD a_35892_2529# a_45669_1861# VDD sky130_fd_pr__pfet_01v8_hvt ad=0p pd=0u as=0p ps=0u w=1e+06u l=150000u
X48 a_15288_619# C[40] VSS VSS sky130_fd_pr__nfet_01v8 ad=1.69e+11p pd=1.82e+06u as=0p ps=0u w=650000u l=150000u
X49 VDD a_5690_2529# a_15467_1861# VDD sky130_fd_pr__pfet_01v8_hvt ad=0p pd=0u as=0p ps=0u w=1e+06u l=150000u
X50 a_45479_5549# a_35892_2529# VDD VDD sky130_fd_pr__pfet_01v8_hvt ad=4.32e+12p pd=4.064e+07u as=0p ps=0u w=1e+06u l=150000u
X51 a_43745_1923# a_43658_1825# a_43663_1923# VDD sky130_fd_pr__pfet_01v8_hvt ad=2.1e+11p pd=2.42e+06u as=5.7e+11p ps=5.14e+06u w=1e+06u l=150000u
X52 VSS a_35892_2529# a_45669_1861# VSS sky130_fd_pr__nfet_01v8 ad=0p pd=0u as=2.808e+12p ps=2.944e+07u w=650000u l=150000u
X53 a_179_5549# a_5690_2529# VSS VSS sky130_fd_pr__nfet_01v8 ad=0p pd=0u as=0p ps=0u w=650000u l=150000u
X54 a_19572_5882# a_18954_6337# a_19172_6378# VSS sky130_fd_pr__nfet_01v8 ad=0p pd=0u as=2.015e+11p ps=1.92e+06u w=650000u l=150000u
X55 VSS RESET sky130_fd_sc_hd__inv_4_0/Y VSS sky130_fd_pr__nfet_01v8 ad=0p pd=0u as=3.51e+11p ps=3.68e+06u w=650000u l=150000u
X56 a_179_5549# a_5690_2529# VDD VDD sky130_fd_pr__pfet_01v8_hvt ad=4.32e+12p pd=4.064e+07u as=0p ps=0u w=1e+06u l=150000u
X57 a_2586_5882# a_3856_6337# a_4047_5637# VSS sky130_fd_pr__nfet_01v8 ad=4.29e+11p pd=3.92e+06u as=3.77e+11p ps=3.76e+06u w=650000u l=150000u
X58 a_3966_619# C[34] VSS VSS sky130_fd_pr__nfet_01v8 ad=1.69e+11p pd=1.82e+06u as=0p ps=0u w=650000u l=150000u
X59 a_18083_5317# a_15277_5549# VDD VDD sky130_fd_pr__pfet_01v8_hvt ad=2.1e+11p pd=2.42e+06u as=0p ps=0u w=1e+06u l=150000u
X60 VDD a_40058_765# a_39882_1825# VDD sky130_fd_pr__pfet_01v8_hvt ad=0p pd=0u as=6e+11p ps=5.2e+06u w=1e+06u l=150000u
X61 a_35892_2529# a_13265_3394# VSS VSS sky130_fd_pr__nfet_01v8 ad=2.808e+12p pd=2.944e+07u as=0p ps=0u w=650000u l=150000u
X62 VSS a_45669_1861# a_49321_1923# VSS sky130_fd_pr__nfet_01v8 ad=0p pd=0u as=3.77e+11p ps=3.76e+06u w=650000u l=150000u
X63 VSS a_35892_2529# a_30381_5549# VSS sky130_fd_pr__nfet_01v8 ad=0p pd=0u as=0p ps=0u w=650000u l=150000u
X64 a_18765_625# a_18595_625# VDD VDD sky130_fd_pr__pfet_01v8_hvt ad=2.054e+11p pd=2.1e+06u as=0p ps=0u w=790000u l=150000u
X65 VDD a_14783_6584# a_14733_6365# VDD sky130_fd_pr__pfet_01v8_hvt ad=0p pd=0u as=2.054e+11p ps=2.1e+06u w=790000u l=150000u
X66 a_34760_1758# a_34394_765# a_32774_702# VDD sky130_fd_pr__pfet_01v8_hvt ad=6e+11p pd=5.2e+06u as=6.6e+11p ps=5.32e+06u w=1e+06u l=150000u
X67 a_6362_5882# a_7580_6363# a_7823_5637# VDD sky130_fd_pr__pfet_01v8_hvt ad=6.6e+11p pd=5.32e+06u as=5.7e+11p ps=5.14e+06u w=1e+06u l=150000u
X68 a_42326_6938# a_41558_6363# a_40340_5882# VSS sky130_fd_pr__nfet_01v8 ad=3.77e+11p pd=3.76e+06u as=4.29e+11p ps=3.92e+06u w=650000u l=150000u
X69 a_47459_5637# a_47486_6378# a_47471_5317# VDD sky130_fd_pr__pfet_01v8_hvt ad=5.7e+11p pd=5.14e+06u as=2.1e+11p ps=2.42e+06u w=1e+06u l=150000u
X70 a_30571_1861# a_35892_2529# VDD VDD sky130_fd_pr__pfet_01v8_hvt ad=0p pd=0u as=0p ps=0u w=1e+06u l=150000u
X71 a_45479_5549# a_35892_2529# VDD VDD sky130_fd_pr__pfet_01v8_hvt ad=0p pd=0u as=0p ps=0u w=1e+06u l=150000u
X72 a_n315_6584# a_n225_6339# VDD VDD sky130_fd_pr__pfet_01v8_hvt ad=2.054e+11p pd=2.1e+06u as=0p ps=0u w=790000u l=150000u
X73 a_58932_765# a_58706_619# VDD VDD sky130_fd_pr__pfet_01v8_hvt ad=2.6e+11p pd=2.52e+06u as=0p ps=0u w=1e+06u l=150000u
X74 a_32335_1923# a_32330_1825# VSS VSS sky130_fd_pr__nfet_01v8 ad=3.77e+11p pd=3.76e+06u as=0p ps=0u w=650000u l=150000u
X75 VDD a_30571_1861# a_30529_1923# VDD sky130_fd_pr__pfet_01v8_hvt ad=0p pd=0u as=2.1e+11p ps=2.42e+06u w=1e+06u l=150000u
X76 a_46080_702# a_46082_1758# VSS VSS sky130_fd_pr__nfet_01v8 ad=3.77e+11p pd=3.76e+06u as=0p ps=0u w=650000u l=150000u
X77 VDD a_41215_6584# a_41165_6365# VDD sky130_fd_pr__pfet_01v8_hvt ad=0p pd=0u as=2.054e+11p ps=2.1e+06u w=790000u l=150000u
X78 VSS a_54425_6584# a_54375_6365# VSS sky130_fd_pr__nfet_01v8 ad=0p pd=0u as=1.352e+11p ps=1.56e+06u w=520000u l=150000u
X79 a_30571_1861# a_35892_2529# VSS VSS sky130_fd_pr__nfet_01v8 ad=0p pd=0u as=0p ps=0u w=650000u l=150000u
X80 VDD a_13900_702# a_14825_625# VDD sky130_fd_pr__pfet_01v8_hvt ad=0p pd=0u as=2.054e+11p ps=2.1e+06u w=790000u l=150000u
X81 VDD a_43498_6337# a_43446_6363# VDD sky130_fd_pr__pfet_01v8_hvt ad=0p pd=0u as=2.6e+11p ps=2.52e+06u w=1e+06u l=150000u
X82 a_19656_1758# a_19064_619# a_17670_702# VSS sky130_fd_pr__nfet_01v8 ad=2.015e+11p pd=1.92e+06u as=4.29e+11p ps=3.92e+06u w=650000u l=150000u
X83 VSS a_35892_2529# a_30571_1861# VSS sky130_fd_pr__nfet_01v8 ad=0p pd=0u as=0p ps=0u w=650000u l=150000u
X84 a_42214_702# a_41946_765# a_41775_1923# VSS sky130_fd_pr__nfet_01v8 ad=4.29e+11p pd=3.92e+06u as=3.77e+11p ps=3.76e+06u w=650000u l=150000u
X85 VSS a_5690_2529# a_369_1861# VSS sky130_fd_pr__nfet_01v8 ad=0p pd=0u as=0p ps=0u w=650000u l=150000u
X86 VSS C[25] a_11408_6337# VSS sky130_fd_pr__nfet_01v8 ad=0p pd=0u as=1.69e+11p ps=1.82e+06u w=650000u l=150000u
X87 a_47459_5637# a_45479_5549# VSS VSS sky130_fd_pr__nfet_01v8 ad=3.77e+11p pd=3.76e+06u as=0p ps=0u w=650000u l=150000u
X88 a_11219_625# a_11049_625# VSS VSS sky130_fd_pr__nfet_01v8 ad=1.352e+11p pd=1.56e+06u as=0p ps=0u w=520000u l=150000u
X89 a_36564_5882# a_35946_6337# a_36164_6378# VSS sky130_fd_pr__nfet_01v8 ad=4.29e+11p pd=3.92e+06u as=2.015e+11p ps=1.92e+06u w=650000u l=150000u
X90 a_47872_702# a_49266_619# a_49316_1825# VDD sky130_fd_pr__pfet_01v8_hvt ad=6.6e+11p pd=5.32e+06u as=6e+11p ps=5.2e+06u w=1e+06u l=150000u
X91 a_35075_5317# a_30381_5549# VDD VDD sky130_fd_pr__pfet_01v8_hvt ad=2.1e+11p pd=2.42e+06u as=0p ps=0u w=1e+06u l=150000u
X92 VDD a_35892_2529# a_45669_1861# VDD sky130_fd_pr__pfet_01v8_hvt ad=0p pd=0u as=0p ps=0u w=1e+06u l=150000u
X93 a_55438_5882# a_56708_6337# a_56899_5637# VSS sky130_fd_pr__nfet_01v8 ad=4.29e+11p pd=3.92e+06u as=3.77e+11p ps=3.76e+06u w=650000u l=150000u
X94 VSS a_45380_6337# a_45328_6363# VSS sky130_fd_pr__nfet_01v8 ad=0p pd=0u as=1.69e+11p ps=1.82e+06u w=650000u l=150000u
X95 VSS a_35892_2529# a_45669_1861# VSS sky130_fd_pr__nfet_01v8 ad=0p pd=0u as=0p ps=0u w=650000u l=150000u
X96 VDD a_35892_2529# a_30381_5549# VDD sky130_fd_pr__pfet_01v8_hvt ad=0p pd=0u as=0p ps=0u w=1e+06u l=150000u
X97 VSS a_13265_3394# a_35892_2529# VSS sky130_fd_pr__nfet_01v8 ad=0p pd=0u as=0p ps=0u w=650000u l=150000u
X98 a_21460_5882# a_20790_6363# a_21060_6378# VDD sky130_fd_pr__pfet_01v8_hvt ad=6.6e+11p pd=5.32e+06u as=6e+11p ps=5.2e+06u w=1e+06u l=150000u
X99 VSS a_49760_702# a_50685_625# VSS sky130_fd_pr__nfet_01v8 ad=0p pd=0u as=1.352e+11p ps=1.56e+06u w=520000u l=150000u
X100 VDD a_31775_6584# a_31725_6365# VDD sky130_fd_pr__pfet_01v8_hvt ad=0p pd=0u as=2.054e+11p ps=2.1e+06u w=790000u l=150000u
X101 VSS a_44985_6584# a_44935_6365# VSS sky130_fd_pr__nfet_01v8 ad=0p pd=0u as=1.352e+11p ps=1.56e+06u w=520000u l=150000u
X102 a_4021_1923# a_4016_1825# VSS VSS sky130_fd_pr__nfet_01v8 ad=3.77e+11p pd=3.76e+06u as=0p ps=0u w=650000u l=150000u
X103 a_179_5549# a_5690_2529# VSS VSS sky130_fd_pr__nfet_01v8 ad=0p pd=0u as=0p ps=0u w=650000u l=150000u
X104 a_45669_1861# a_35892_2529# VSS VSS sky130_fd_pr__nfet_01v8 ad=0p pd=0u as=0p ps=0u w=650000u l=150000u
X105 a_5991_1923# a_5904_1825# a_5909_1923# VDD sky130_fd_pr__pfet_01v8_hvt ad=2.1e+11p pd=2.42e+06u as=5.7e+11p ps=5.14e+06u w=1e+06u l=150000u
X106 a_179_5549# a_5690_2529# VDD VDD sky130_fd_pr__pfet_01v8_hvt ad=0p pd=0u as=0p ps=0u w=1e+06u l=150000u
X107 a_25332_5882# a_24566_6363# a_25236_5882# VSS sky130_fd_pr__nfet_01v8 ad=2.015e+11p pd=1.92e+06u as=4.29e+11p ps=3.92e+06u w=650000u l=150000u
X108 a_15467_1861# a_5690_2529# VSS VSS sky130_fd_pr__nfet_01v8 ad=0p pd=0u as=0p ps=0u w=650000u l=150000u
X109 VDD a_5690_2529# a_369_1861# VDD sky130_fd_pr__pfet_01v8_hvt ad=0p pd=0u as=0p ps=0u w=1e+06u l=150000u
X110 a_13406_619# C[39] VDD VDD sky130_fd_pr__pfet_01v8_hvt ad=2.6e+11p pd=2.52e+06u as=0p ps=0u w=1e+06u l=150000u
X111 a_37439_6584# a_36564_5882# VSS VSS sky130_fd_pr__nfet_01v8 ad=1.352e+11p pd=1.56e+06u as=0p ps=0u w=520000u l=150000u
X112 a_46096_6938# a_45328_6363# a_44116_5882# VSS sky130_fd_pr__nfet_01v8 ad=3.77e+11p pd=3.76e+06u as=4.29e+11p ps=3.92e+06u w=650000u l=150000u
X113 VSS a_2682_5882# a_2684_6938# VSS sky130_fd_pr__nfet_01v8 ad=0p pd=0u as=3.77e+11p ps=3.76e+06u w=650000u l=150000u
X114 a_36648_1758# a_36056_619# a_34662_702# VSS sky130_fd_pr__nfet_01v8 ad=2.015e+11p pd=1.92e+06u as=4.29e+11p ps=3.92e+06u w=650000u l=150000u
X115 VSS a_15467_1861# a_19654_702# VSS sky130_fd_pr__nfet_01v8 ad=0p pd=0u as=3.77e+11p ps=3.76e+06u w=650000u l=150000u
X116 a_8250_5882# a_7632_6337# a_7850_6378# VSS sky130_fd_pr__nfet_01v8 ad=4.29e+11p pd=3.92e+06u as=2.015e+11p ps=1.92e+06u w=650000u l=150000u
X117 a_40422_702# a_40058_765# a_40326_702# VDD sky130_fd_pr__pfet_01v8_hvt ad=5.7e+11p pd=5.14e+06u as=6.6e+11p ps=5.32e+06u w=1e+06u l=150000u
X118 a_45479_5549# a_35892_2529# VDD VDD sky130_fd_pr__pfet_01v8_hvt ad=0p pd=0u as=0p ps=0u w=1e+06u l=150000u
X119 a_36662_6938# a_36660_5882# a_36963_5317# VDD sky130_fd_pr__pfet_01v8_hvt ad=5.7e+11p pd=5.14e+06u as=2.1e+11p ps=2.42e+06u w=1e+06u l=150000u
X120 VDD a_47268_6337# a_47216_6363# VDD sky130_fd_pr__pfet_01v8_hvt ad=0p pd=0u as=2.6e+11p ps=2.52e+06u w=1e+06u l=150000u
X121 a_21859_5317# a_15277_5549# VDD VDD sky130_fd_pr__pfet_01v8_hvt ad=2.1e+11p pd=2.42e+06u as=0p ps=0u w=1e+06u l=150000u
X122 VDD a_32506_765# a_32330_1825# VDD sky130_fd_pr__pfet_01v8_hvt ad=0p pd=0u as=6e+11p ps=5.2e+06u w=1e+06u l=150000u
X123 a_13265_3394# sky130_fd_sc_hd__inv_4_0/Y VDD VDD sky130_fd_pr__pfet_01v8_hvt ad=2.16e+12p pd=2.032e+07u as=0p ps=0u w=1e+06u l=150000u
X124 VDD a_3461_6584# a_3411_6365# VDD sky130_fd_pr__pfet_01v8_hvt ad=0p pd=0u as=2.054e+11p ps=2.1e+06u w=790000u l=150000u
X125 VSS a_21556_5882# a_21558_6938# VSS sky130_fd_pr__nfet_01v8 ad=0p pd=0u as=0p ps=0u w=650000u l=150000u
X126 a_53632_702# a_53634_1758# VSS VSS sky130_fd_pr__nfet_01v8 ad=3.77e+11p pd=3.76e+06u as=0p ps=0u w=650000u l=150000u
X127 a_15892_5882# a_15126_6363# a_15796_5882# VSS sky130_fd_pr__nfet_01v8 ad=2.015e+11p pd=1.92e+06u as=4.29e+11p ps=3.92e+06u w=650000u l=150000u
X128 a_11611_5317# a_179_5549# VDD VDD sky130_fd_pr__pfet_01v8_hvt ad=2.1e+11p pd=2.42e+06u as=0p ps=0u w=1e+06u l=150000u
X129 a_2078_619# C[33] VSS VSS sky130_fd_pr__nfet_01v8 ad=1.69e+11p pd=1.82e+06u as=0p ps=0u w=650000u l=150000u
X130 a_34394_765# a_34168_619# VDD VDD sky130_fd_pr__pfet_01v8_hvt ad=2.6e+11p pd=2.52e+06u as=0p ps=0u w=1e+06u l=150000u
X131 a_15277_5549# a_5690_2529# VSS VSS sky130_fd_pr__nfet_01v8 ad=2.808e+12p pd=2.944e+07u as=0p ps=0u w=650000u l=150000u
X132 a_9685_1923# a_9680_1825# VSS VSS sky130_fd_pr__nfet_01v8 ad=3.77e+11p pd=3.76e+06u as=0p ps=0u w=650000u l=150000u
X133 VDD a_369_1861# a_7879_1923# VDD sky130_fd_pr__pfet_01v8_hvt ad=0p pd=0u as=2.1e+11p ps=2.42e+06u w=1e+06u l=150000u
X134 a_35892_2529# a_13265_3394# VDD VDD sky130_fd_pr__pfet_01v8_hvt ad=0p pd=0u as=0p ps=0u w=1e+06u l=150000u
X135 a_9125_6584# a_8250_5882# VSS VSS sky130_fd_pr__nfet_01v8 ad=1.352e+11p pd=1.56e+06u as=0p ps=0u w=520000u l=150000u
X136 VDD a_13265_3394# a_5690_2529# VDD sky130_fd_pr__pfet_01v8_hvt ad=0p pd=0u as=0p ps=0u w=1e+06u l=150000u
X137 a_36282_765# a_36056_619# VSS VSS sky130_fd_pr__nfet_01v8 ad=1.69e+11p pd=1.82e+06u as=0p ps=0u w=650000u l=150000u
X138 VDD a_40326_702# a_41251_625# VDD sky130_fd_pr__pfet_01v8_hvt ad=0p pd=0u as=2.054e+11p ps=2.1e+06u w=790000u l=150000u
X139 VDD a_55156_765# a_54980_1825# VDD sky130_fd_pr__pfet_01v8_hvt ad=0p pd=0u as=6e+11p ps=5.2e+06u w=1e+06u l=150000u
X140 a_8334_1758# a_7742_619# a_6348_702# VSS sky130_fd_pr__nfet_01v8 ad=2.015e+11p pd=1.92e+06u as=4.29e+11p ps=3.92e+06u w=650000u l=150000u
X141 VDD a_35892_2529# a_30381_5549# VDD sky130_fd_pr__pfet_01v8_hvt ad=0p pd=0u as=0p ps=0u w=1e+06u l=150000u
X142 a_40326_702# a_39832_619# a_39887_1923# VDD sky130_fd_pr__pfet_01v8_hvt ad=0p pd=0u as=5.7e+11p ps=5.14e+06u w=1e+06u l=150000u
X143 a_19668_5882# a_18954_6337# a_19572_5882# VDD sky130_fd_pr__pfet_01v8_hvt ad=6e+11p pd=5.2e+06u as=6.6e+11p ps=5.32e+06u w=1e+06u l=150000u
X144 a_4572_6938# a_3856_6337# a_2586_5882# VDD sky130_fd_pr__pfet_01v8_hvt ad=5.7e+11p pd=5.14e+06u as=6.6e+11p ps=5.32e+06u w=1e+06u l=150000u
X145 VDD a_1968_6337# a_1916_6363# VDD sky130_fd_pr__pfet_01v8_hvt ad=0p pd=0u as=2.6e+11p ps=2.52e+06u w=1e+06u l=150000u
X146 a_53097_1923# a_53092_1825# VSS VSS sky130_fd_pr__nfet_01v8 ad=3.77e+11p pd=3.76e+06u as=0p ps=0u w=650000u l=150000u
X147 a_27222_6938# a_27220_5882# a_27523_5317# VDD sky130_fd_pr__pfet_01v8_hvt ad=5.7e+11p pd=5.14e+06u as=2.1e+11p ps=2.42e+06u w=1e+06u l=150000u
X148 VDD a_45669_1861# a_51291_1923# VDD sky130_fd_pr__pfet_01v8_hvt ad=0p pd=0u as=2.1e+11p ps=2.42e+06u w=1e+06u l=150000u
X149 a_42627_5317# a_30381_5549# VDD VDD sky130_fd_pr__pfet_01v8_hvt ad=2.1e+11p pd=2.42e+06u as=0p ps=0u w=1e+06u l=150000u
X150 a_179_5549# a_5690_2529# VSS VSS sky130_fd_pr__nfet_01v8 ad=0p pd=0u as=0p ps=0u w=650000u l=150000u
X151 VSS C[12] a_35946_6337# VSS sky130_fd_pr__nfet_01v8 ad=0p pd=0u as=1.69e+11p ps=1.82e+06u w=650000u l=150000u
X152 a_54631_625# a_54461_625# VSS VSS sky130_fd_pr__nfet_01v8 ad=1.352e+11p pd=1.56e+06u as=0p ps=0u w=520000u l=150000u
X153 a_179_5549# a_5690_2529# VDD VDD sky130_fd_pr__pfet_01v8_hvt ad=0p pd=0u as=0p ps=0u w=1e+06u l=150000u
X154 a_29094_702# a_28504_619# a_28998_702# VSS sky130_fd_pr__nfet_01v8 ad=3.77e+11p pd=3.76e+06u as=4.29e+11p ps=3.92e+06u w=650000u l=150000u
X155 a_5555_625# a_5385_625# VDD VDD sky130_fd_pr__pfet_01v8_hvt ad=2.054e+11p pd=2.1e+06u as=0p ps=0u w=790000u l=150000u
X156 a_29094_702# a_28730_765# a_28998_702# VDD sky130_fd_pr__pfet_01v8_hvt ad=5.7e+11p pd=5.14e+06u as=6.6e+11p ps=5.32e+06u w=1e+06u l=150000u
X157 VDD a_5690_2529# a_369_1861# VDD sky130_fd_pr__pfet_01v8_hvt ad=0p pd=0u as=0p ps=0u w=1e+06u l=150000u
X158 a_13265_3394# sky130_fd_sc_hd__inv_4_0/Y VSS VSS sky130_fd_pr__nfet_01v8 ad=1.404e+12p pd=1.472e+07u as=0p ps=0u w=650000u l=150000u
X159 a_41720_619# C[54] VSS VSS sky130_fd_pr__nfet_01v8 ad=1.69e+11p pd=1.82e+06u as=0p ps=0u w=650000u l=150000u
X160 VDD a_28998_702# a_29923_625# VDD sky130_fd_pr__pfet_01v8_hvt ad=0p pd=0u as=2.054e+11p ps=2.1e+06u w=790000u l=150000u
X161 a_29108_5882# a_28342_6363# VDD VDD sky130_fd_pr__pfet_01v8_hvt ad=6e+11p pd=5.2e+06u as=0p ps=0u w=1e+06u l=150000u
X162 a_13487_5637# a_13514_6378# a_13499_5317# VDD sky130_fd_pr__pfet_01v8_hvt ad=5.7e+11p pd=5.14e+06u as=2.1e+11p ps=2.42e+06u w=1e+06u l=150000u
X163 a_32884_5882# a_32118_6363# a_32788_5882# VSS sky130_fd_pr__nfet_01v8 ad=2.015e+11p pd=1.92e+06u as=4.29e+11p ps=3.92e+06u w=650000u l=150000u
X164 a_26317_625# a_26147_625# VSS VSS sky130_fd_pr__nfet_01v8 ad=1.352e+11p pd=1.56e+06u as=0p ps=0u w=520000u l=150000u
X165 a_369_1861# a_5690_2529# VSS VSS sky130_fd_pr__nfet_01v8 ad=0p pd=0u as=0p ps=0u w=650000u l=150000u
X166 VSS a_369_1861# a_11573_1923# VSS sky130_fd_pr__nfet_01v8 ad=0p pd=0u as=3.77e+11p ps=3.76e+06u w=650000u l=150000u
X167 VDD a_13265_3394# a_5690_2529# VDD sky130_fd_pr__pfet_01v8_hvt ad=0p pd=0u as=0p ps=0u w=1e+06u l=150000u
X168 a_27567_1923# a_27208_1758# a_27206_702# VDD sky130_fd_pr__pfet_01v8_hvt ad=2.1e+11p pd=2.42e+06u as=5.7e+11p ps=5.14e+06u w=1e+06u l=150000u
X169 VSS a_5690_2529# a_15277_5549# VSS sky130_fd_pr__nfet_01v8 ad=0p pd=0u as=0p ps=0u w=650000u l=150000u
X170 VDD a_52537_6584# a_52487_6365# VDD sky130_fd_pr__pfet_01v8_hvt ad=0p pd=0u as=2.054e+11p ps=2.1e+06u w=790000u l=150000u
X171 a_20653_625# a_20483_625# VDD VDD sky130_fd_pr__pfet_01v8_hvt ad=2.054e+11p pd=2.1e+06u as=0p ps=0u w=790000u l=150000u
X172 a_30381_5549# a_35892_2529# VSS VSS sky130_fd_pr__nfet_01v8 ad=0p pd=0u as=0p ps=0u w=650000u l=150000u
X173 VDD a_5690_2529# a_15277_5549# VDD sky130_fd_pr__pfet_01v8_hvt ad=0p pd=0u as=0p ps=0u w=1e+06u l=150000u
X174 a_15381_5317# a_15277_5549# VDD VDD sky130_fd_pr__pfet_01v8_hvt ad=2.1e+11p pd=2.42e+06u as=0p ps=0u w=1e+06u l=150000u
X175 a_15467_1861# a_5690_2529# VDD VDD sky130_fd_pr__pfet_01v8_hvt ad=0p pd=0u as=0p ps=0u w=1e+06u l=150000u
X176 a_30381_5549# a_35892_2529# VDD VDD sky130_fd_pr__pfet_01v8_hvt ad=0p pd=0u as=0p ps=0u w=1e+06u l=150000u
X177 a_36660_5882# a_35946_6337# a_36564_5882# VDD sky130_fd_pr__pfet_01v8_hvt ad=6e+11p pd=5.2e+06u as=6.6e+11p ps=5.32e+06u w=1e+06u l=150000u
X178 a_18559_6584# a_17684_5882# VDD VDD sky130_fd_pr__pfet_01v8_hvt ad=2.054e+11p pd=2.1e+06u as=0p ps=0u w=790000u l=150000u
X179 VDD a_35892_2529# a_30571_1861# VDD sky130_fd_pr__pfet_01v8_hvt ad=0p pd=0u as=0p ps=0u w=1e+06u l=150000u
X180 a_44214_6938# a_44212_5882# a_44515_5317# VDD sky130_fd_pr__pfet_01v8_hvt ad=5.7e+11p pd=5.14e+06u as=2.1e+11p ps=2.42e+06u w=1e+06u l=150000u
X181 a_13487_5637# a_179_5549# VSS VSS sky130_fd_pr__nfet_01v8 ad=3.77e+11p pd=3.76e+06u as=0p ps=0u w=650000u l=150000u
X182 VSS a_684_702# a_1609_625# VSS sky130_fd_pr__nfet_01v8 ad=0p pd=0u as=1.352e+11p ps=1.56e+06u w=520000u l=150000u
X183 a_9856_765# a_9630_619# VDD VDD sky130_fd_pr__pfet_01v8_hvt ad=2.6e+11p pd=2.52e+06u as=0p ps=0u w=1e+06u l=150000u
X184 VDD a_5690_2529# a_179_5549# VDD sky130_fd_pr__pfet_01v8_hvt ad=0p pd=0u as=0p ps=0u w=1e+06u l=150000u
X185 a_32870_702# a_32506_765# a_32774_702# VDD sky130_fd_pr__pfet_01v8_hvt ad=5.7e+11p pd=5.14e+06u as=0p ps=0u w=1e+06u l=150000u
X186 VSS a_5690_2529# a_179_5549# VSS sky130_fd_pr__nfet_01v8 ad=0p pd=0u as=0p ps=0u w=650000u l=150000u
X187 VDD a_5690_2529# a_15467_1861# VDD sky130_fd_pr__pfet_01v8_hvt ad=0p pd=0u as=0p ps=0u w=1e+06u l=150000u
X188 VSS C[19] a_22730_6337# VSS sky130_fd_pr__nfet_01v8 ad=0p pd=0u as=1.69e+11p ps=1.82e+06u w=650000u l=150000u
X189 a_11744_765# a_11518_619# VSS VSS sky130_fd_pr__nfet_01v8 ad=1.69e+11p pd=1.82e+06u as=0p ps=0u w=650000u l=150000u
X190 a_369_1861# a_5690_2529# VDD VDD sky130_fd_pr__pfet_01v8_hvt ad=0p pd=0u as=0p ps=0u w=1e+06u l=150000u
X191 a_35892_2529# a_13265_3394# VDD VDD sky130_fd_pr__pfet_01v8_hvt ad=0p pd=0u as=0p ps=0u w=1e+06u l=150000u
X192 a_19668_5882# a_18902_6363# VDD VDD sky130_fd_pr__pfet_01v8_hvt ad=0p pd=0u as=0p ps=0u w=1e+06u l=150000u
X193 a_47886_5882# a_47268_6337# a_47486_6378# VSS sky130_fd_pr__nfet_01v8 ad=4.29e+11p pd=3.92e+06u as=2.015e+11p ps=1.92e+06u w=650000u l=150000u
X194 a_28504_619# C[47] VDD VDD sky130_fd_pr__pfet_01v8_hvt ad=2.6e+11p pd=2.52e+06u as=0p ps=0u w=1e+06u l=150000u
X195 a_13543_1923# a_13456_1825# a_13461_1923# VDD sky130_fd_pr__pfet_01v8_hvt ad=2.1e+11p pd=2.42e+06u as=5.7e+11p ps=5.14e+06u w=1e+06u l=150000u
X196 VSS a_5690_2529# a_15467_1861# VSS sky130_fd_pr__nfet_01v8 ad=0p pd=0u as=0p ps=0u w=650000u l=150000u
X197 a_46397_5317# a_45479_5549# VDD VDD sky130_fd_pr__pfet_01v8_hvt ad=2.1e+11p pd=2.42e+06u as=0p ps=0u w=1e+06u l=150000u
X198 VDD a_13265_3394# a_5690_2529# VDD sky130_fd_pr__pfet_01v8_hvt ad=0p pd=0u as=0p ps=0u w=1e+06u l=150000u
X199 a_4570_5882# a_3804_6363# a_4474_5882# VSS sky130_fd_pr__nfet_01v8 ad=2.015e+11p pd=1.92e+06u as=4.29e+11p ps=3.92e+06u w=650000u l=150000u
X200 a_25320_1758# a_24728_619# VDD VDD sky130_fd_pr__pfet_01v8_hvt ad=6e+11p pd=5.2e+06u as=0p ps=0u w=1e+06u l=150000u
X201 a_55520_702# a_55156_765# a_55424_702# VDD sky130_fd_pr__pfet_01v8_hvt ad=5.7e+11p pd=5.14e+06u as=6.6e+11p ps=5.32e+06u w=1e+06u l=150000u
X202 a_57424_6938# a_56708_6337# a_55438_5882# VDD sky130_fd_pr__pfet_01v8_hvt ad=5.7e+11p pd=5.14e+06u as=6.6e+11p ps=5.32e+06u w=1e+06u l=150000u
X203 VSS a_38438_702# a_39363_625# VSS sky130_fd_pr__nfet_01v8 ad=0p pd=0u as=1.352e+11p ps=1.56e+06u w=520000u l=150000u
X204 VDD a_35892_2529# a_45479_5549# VDD sky130_fd_pr__pfet_01v8_hvt ad=0p pd=0u as=0p ps=0u w=1e+06u l=150000u
X205 VDD a_54820_6337# a_54768_6363# VDD sky130_fd_pr__pfet_01v8_hvt ad=0p pd=0u as=2.6e+11p ps=2.52e+06u w=1e+06u l=150000u
X206 VSS a_15467_1861# a_19119_1923# VSS sky130_fd_pr__nfet_01v8 ad=0p pd=0u as=3.77e+11p ps=3.76e+06u w=650000u l=150000u
X207 a_45669_1861# a_35892_2529# VDD VDD sky130_fd_pr__pfet_01v8_hvt ad=0p pd=0u as=0p ps=0u w=1e+06u l=150000u
X208 VSS a_13265_3394# a_5690_2529# VSS sky130_fd_pr__nfet_01v8 ad=0p pd=0u as=0p ps=0u w=650000u l=150000u
X209 a_8346_5882# a_7632_6337# a_8250_5882# VDD sky130_fd_pr__pfet_01v8_hvt ad=6e+11p pd=5.2e+06u as=6.6e+11p ps=5.32e+06u w=1e+06u l=150000u
X210 a_44559_1923# a_44200_1758# a_44198_702# VDD sky130_fd_pr__pfet_01v8_hvt ad=2.1e+11p pd=2.42e+06u as=5.7e+11p ps=5.14e+06u w=1e+06u l=150000u
X211 a_12124_6938# a_11356_6363# a_10138_5882# VSS sky130_fd_pr__nfet_01v8 ad=3.77e+11p pd=3.76e+06u as=4.29e+11p ps=3.92e+06u w=650000u l=150000u
X212 a_17257_5637# a_17284_6378# a_17269_5317# VDD sky130_fd_pr__pfet_01v8_hvt ad=5.7e+11p pd=5.14e+06u as=2.1e+11p ps=2.42e+06u w=1e+06u l=150000u
X213 a_15277_5549# a_5690_2529# VDD VDD sky130_fd_pr__pfet_01v8_hvt ad=0p pd=0u as=0p ps=0u w=1e+06u l=150000u
X214 a_32373_5317# a_30381_5549# VDD VDD sky130_fd_pr__pfet_01v8_hvt ad=2.1e+11p pd=2.42e+06u as=0p ps=0u w=1e+06u l=150000u
X215 VDD a_47604_765# a_47428_1825# VDD sky130_fd_pr__pfet_01v8_hvt ad=0p pd=0u as=6e+11p ps=5.2e+06u w=1e+06u l=150000u
X216 VSS C[8] a_43498_6337# VSS sky130_fd_pr__nfet_01v8 ad=0p pd=0u as=1.69e+11p ps=1.82e+06u w=650000u l=150000u
X217 a_35892_2529# a_13265_3394# VDD VDD sky130_fd_pr__pfet_01v8_hvt ad=0p pd=0u as=0p ps=0u w=1e+06u l=150000u
X218 a_47970_1758# a_47378_619# VDD VDD sky130_fd_pr__pfet_01v8_hvt ad=6e+11p pd=5.2e+06u as=0p ps=0u w=1e+06u l=150000u
X219 a_32774_702# a_32506_765# a_32335_1923# VSS sky130_fd_pr__nfet_01v8 ad=4.29e+11p pd=3.92e+06u as=0p ps=0u w=650000u l=150000u
X220 a_32774_702# a_32280_619# a_32335_1923# VDD sky130_fd_pr__pfet_01v8_hvt ad=0p pd=0u as=5.7e+11p ps=5.14e+06u w=1e+06u l=150000u
X221 VDD a_11013_6584# a_10963_6365# VDD sky130_fd_pr__pfet_01v8_hvt ad=0p pd=0u as=2.054e+11p ps=2.1e+06u w=790000u l=150000u
X222 VSS a_24223_6584# a_24173_6365# VSS sky130_fd_pr__nfet_01v8 ad=0p pd=0u as=1.352e+11p ps=1.56e+06u w=520000u l=150000u
X223 VDD a_13265_3394# a_5690_2529# VDD sky130_fd_pr__pfet_01v8_hvt ad=0p pd=0u as=0p ps=0u w=1e+06u l=150000u
X224 a_47970_1758# a_47378_619# a_45984_702# VSS sky130_fd_pr__nfet_01v8 ad=2.015e+11p pd=1.92e+06u as=4.29e+11p ps=3.92e+06u w=650000u l=150000u
X225 VDD a_13296_6337# a_13244_6363# VDD sky130_fd_pr__pfet_01v8_hvt ad=0p pd=0u as=2.6e+11p ps=2.52e+06u w=1e+06u l=150000u
X226 VSS C[10] a_39722_6337# VSS sky130_fd_pr__nfet_01v8 ad=0p pd=0u as=1.69e+11p ps=1.82e+06u w=650000u l=150000u
X227 a_36660_5882# a_35894_6363# VDD VDD sky130_fd_pr__pfet_01v8_hvt ad=0p pd=0u as=0p ps=0u w=1e+06u l=150000u
X228 a_47984_6938# a_47982_5882# a_48285_5317# VDD sky130_fd_pr__pfet_01v8_hvt ad=5.7e+11p pd=5.14e+06u as=2.1e+11p ps=2.42e+06u w=1e+06u l=150000u
X229 VDD a_55424_702# a_56349_625# VDD sky130_fd_pr__pfet_01v8_hvt ad=0p pd=0u as=2.054e+11p ps=2.1e+06u w=790000u l=150000u
X230 a_17257_5637# a_15277_5549# VSS VSS sky130_fd_pr__nfet_01v8 ad=3.77e+11p pd=3.76e+06u as=0p ps=0u w=650000u l=150000u
X231 a_35892_2529# a_13265_3394# VSS VSS sky130_fd_pr__nfet_01v8 ad=0p pd=0u as=0p ps=0u w=650000u l=150000u
X232 a_55424_702# a_54930_619# a_54985_1923# VDD sky130_fd_pr__pfet_01v8_hvt ad=0p pd=0u as=5.7e+11p ps=5.14e+06u w=1e+06u l=150000u
X233 a_47984_6938# a_47268_6337# a_45998_5882# VDD sky130_fd_pr__pfet_01v8_hvt ad=0p pd=0u as=6.6e+11p ps=5.32e+06u w=1e+06u l=150000u
X234 VDD a_30571_1861# a_31343_1923# VDD sky130_fd_pr__pfet_01v8_hvt ad=0p pd=0u as=2.1e+11p ps=2.42e+06u w=1e+06u l=150000u